51
Coordinates from ORCA-job input_IRC_Full E -1355.105560665076
  C      -2.047537     -2.066329      0.891211
  C      -0.715356     -1.665970      0.966534
  C      -0.310461     -0.370284      0.622697
  C      -1.305222      0.548167      0.223551
  C      -2.640359      0.142767      0.144580
  C      -3.009594     -1.158232      0.468899
  H      -2.326823     -3.083654      1.151119
  H       0.030029     -2.395427      1.275825
  H      -3.401681      0.852621     -0.161614
  H      -4.053618     -1.451777      0.401644
  B       1.199035      0.128001      0.629184
  H       1.779332     -1.145080     -0.057141
  C       1.917176      0.400809      2.013947
  C       1.589527     -0.075140      3.263575
  C       2.360375      0.488075      4.318086
  H       0.805155     -0.811322      3.405661
  C       3.265088      1.406763      3.858453
  H       2.244048      0.236832      5.366036
  H       3.962442      1.992847      4.442846
  H       1.586400      0.772294     -0.304630
  B       2.623202     -1.684089      0.632051
  O       3.939108     -1.462946      0.409839
  O       2.326546     -2.737969      1.437302
  C       4.654601     -2.345510      1.312741
  C       3.576791     -3.446389      1.634857
  C       5.884981     -2.858023      0.581454
  H       6.566270     -2.026031      0.387031
  H       6.413811     -3.598503      1.188956
  H       5.621900     -3.309872     -0.376309
  C       5.063127     -1.520833      2.531351
  H       5.647922     -0.659838      2.198608
  H       4.195697     -1.143616      3.078838
  H       5.678947     -2.112595      3.214921
  C       3.617381     -3.977122      3.059095
  H       2.837506     -4.730677      3.194774
  H       4.584058     -4.448265      3.263435
  H       3.452647     -3.181807      3.788340
  C       3.558737     -4.594128      0.627072
  H       4.434605     -5.239653      0.728177
  H       2.661004     -5.193637      0.797124
  H       3.518314     -4.215638     -0.398625
  N      -0.912905      1.875363     -0.100382
  C      -1.761451      2.601790     -1.018827
  H      -2.697688      2.970711     -0.561715
  H      -1.213658      3.474564     -1.388858
  H      -2.015886      1.970864     -1.873846
  C      -0.524699      2.702182      1.032461
  H       0.083541      3.544444      0.685342
  H      -1.401161      3.103473      1.570742
  H       0.070319      2.128913      1.743888
  S       3.184538      1.574873      2.156312
51
Coordinates from ORCA-job input_IRC_Full E -1355.105482291395
  C      -2.047868     -2.066591      0.891288
  C      -0.715267     -1.666762      0.965965
  C      -0.309509     -0.371717      0.621551
  C      -1.303846      0.547588      0.223340
  C      -2.639458      0.142624      0.144975
  C      -3.009330     -1.158092      0.469094
  H      -2.327092     -3.083760      1.151255
  H       0.029563     -2.396257      1.275974
  H      -3.400677      0.852476     -0.161261
  H      -4.053575     -1.451394      0.401571
  B       1.201251      0.123703      0.627879
  H       1.777132     -1.142050     -0.056601
  C       1.917329      0.400500      2.013644
  C       1.589277     -0.075467      3.263870
  C       2.361005      0.488297      4.317797
  H       0.804767     -0.811182      3.404613
  C       3.265146      1.406522      3.858709
  H       2.244495      0.237046      5.366178
  H       3.962774      1.992838      4.443633
  H       1.586578      0.769947     -0.305381
  B       2.621923     -1.682959      0.632277
  O       3.937772     -1.461507      0.410278
  O       2.325584     -2.737288      1.437053
  C       4.653915     -2.344571      1.312804
  C       3.576173     -3.445629      1.634873
  C       5.884272     -2.857483      0.581284
  H       6.566183     -2.025936      0.387005
  H       6.412969     -3.598141      1.188783
  H       5.621653     -3.309784     -0.376424
  C       5.063210     -1.520396      2.531741
  H       5.648166     -0.659389      2.199182
  H       4.195958     -1.142964      3.079366
  H       5.679087     -2.112572      3.215109
  C       3.617428     -3.976872      3.059238
  H       2.837823     -4.730761      3.194751
  H       4.584228     -4.448164      3.263391
  H       3.452899     -3.181994      3.789057
  C       3.558048     -4.593348      0.626919
  H       4.433846     -5.238903      0.728033
  H       2.660494     -5.193192      0.796835
  H       3.517646     -4.215272     -0.398974
  N      -0.912079      1.874977     -0.100510
  C      -1.761120      2.601492     -1.018532
  H      -2.697342      2.970486     -0.561334
  H      -1.213524      3.474385     -1.388584
  H      -2.015901      1.970768     -1.873609
  C      -0.524133      2.701805      1.032456
  H       0.083771      3.544263      0.685192
  H      -1.400785      3.103048      1.570517
  H       0.070943      2.128658      1.743955
  S       3.184262      1.574973      2.156384
51
Coordinates from ORCA-job input_IRC_Full E -1355.105411777839
  C      -2.048095     -2.066738      0.891358
  C      -0.715212     -1.667247      0.965535
  C      -0.308679     -0.372754      0.620698
  C      -1.302787      0.547158      0.223226
  C      -2.638774      0.142570      0.145291
  C      -3.009204     -1.157978      0.469235
  H      -2.327249     -3.083809      1.151324
  H       0.029218     -2.396752      1.276107
  H      -3.400046      0.852326     -0.161042
  H      -4.053561     -1.451168      0.401508
  B       1.202900      0.120221      0.626506
  H       1.775310     -1.139511     -0.056191
  C       1.917421      0.400517      2.013627
  C       1.588991     -0.075791      3.264321
  C       2.361480      0.488349      4.317607
  H       0.804446     -0.811062      3.403744
  C       3.265356      1.406524      3.858794
  H       2.244816      0.237231      5.366206
  H       3.963067      1.992855      4.444296
  H       1.586570      0.768228     -0.305775
  B       2.620851     -1.682257      0.631829
  O       3.936820     -1.460462      0.410688
  O       2.325007     -2.736905      1.437019
  C       4.653404     -2.343855      1.312910
  C       3.575716     -3.445077      1.634947
  C       5.883820     -2.857149      0.581160
  H       6.566169     -2.025872      0.386996
  H       6.412435     -3.597923      1.188633
  H       5.621525     -3.309785     -0.376522
  C       5.063324     -1.520108      2.532111
  H       5.648346     -0.659037      2.199569
  H       4.196120     -1.142502      3.079703
  H       5.679252     -2.112596      3.215322
  C       3.617537     -3.976722      3.059445
  H       2.838035     -4.730854      3.194715
  H       4.584404     -4.448159      3.263439
  H       3.453088     -3.182113      3.789584
  C       3.557607     -4.592779      0.626830
  H       4.433264     -5.238368      0.727922
  H       2.660129     -5.192935      0.796609
  H       3.517180     -4.215053     -0.399282
  N      -0.911520      1.874741     -0.100573
  C      -1.760912      2.601292     -1.018314
  H      -2.697128      2.970361     -0.561105
  H      -1.213435      3.474272     -1.388391
  H      -2.015929      1.970710     -1.873446
  C      -0.523771      2.701555      1.032460
  H       0.083914      3.544140      0.685063
  H      -1.400523      3.102770      1.570352
  H       0.071372      2.128487      1.744038
  S       3.183995      1.575012      2.156526
51
Coordinates from ORCA-job input_IRC_Full E -1355.105320431985
  C      -2.048251     -2.066792      0.891425
  C      -0.715201     -1.667608      0.965083
  C      -0.307574     -0.373739      0.619918
  C      -1.301651      0.546685      0.223171
  C      -2.637996      0.142579      0.145631
  C      -3.009209     -1.157888      0.469371
  H      -2.327388     -3.083881      1.151374
  H       0.028870     -2.397124      1.276257
  H      -3.399598      0.852174     -0.160888
  H      -4.053565     -1.451002      0.401440
  B       1.204379      0.116405      0.624140
  H       1.773277     -1.136619     -0.055718
  C       1.917704      0.400942      2.014232
  C       1.588773     -0.076077      3.265122
  C       2.361737      0.488051      4.317456
  H       0.804010     -0.811003      3.402777
  C       3.265839      1.406878      3.858491
  H       2.245117      0.237455      5.366070
  H       3.963413      1.992898      4.445067
  H       1.586369      0.766431     -0.305817
  B       2.619585     -1.681713      0.630617
  O       3.935941     -1.459453      0.411274
  O       2.324719     -2.736673      1.437208
  C       4.652813     -2.343074      1.313072
  C       3.575153     -3.444505      1.635114
  C       5.883478     -2.856896      0.581026
  H       6.566211     -2.025794      0.386993
  H       6.411994     -3.597764      1.188473
  H       5.621436     -3.309858     -0.376655
  C       5.063491     -1.519846      2.532578
  H       5.648528     -0.658652      2.199904
  H       4.196247     -1.142065      3.079973
  H       5.679488     -2.112679      3.215618
  C       3.617762     -3.976622      3.059774
  H       2.838206     -4.730982      3.194648
  H       4.584624     -4.448217      3.263555
  H       3.453272     -3.182199      3.790098
  C       3.557265     -4.592220      0.626780
  H       4.432655     -5.237851      0.727802
  H       2.659758     -5.192762      0.796377
  H       3.516735     -4.214873     -0.399675
  N      -0.911025      1.874555     -0.100597
  C      -1.760755      2.601120     -1.018110
  H      -2.696943      2.970269     -0.560925
  H      -1.213350      3.474182     -1.388210
  H      -2.015969      1.970665     -1.873291
  C      -0.523482      2.701335      1.032471
  H       0.084032      3.544023      0.684915
  H      -1.400264      3.102519      1.570182
  H       0.071775      2.128330      1.744156
  S       3.183627      1.574932      2.156866
51
Coordinates from ORCA-job input_IRC_Full E -1355.104790792318
  C      -2.048499     -2.066938      0.891621
  C      -0.715287     -1.668112      0.964389
  C      -0.305036     -0.375666      0.617854
  C      -1.300088      0.546286      0.223008
  C      -2.637372      0.142800      0.146411
  C      -3.009418     -1.157857      0.469713
  H      -2.327519     -3.083840      1.151310
  H       0.028113     -2.397234      1.276517
  H      -3.399367      0.851888     -0.160885
  H      -4.053500     -1.450740      0.401260
  B       1.215671      0.103989      0.626033
  H       1.764057     -1.125205     -0.055858
  C       1.911043      0.402369      2.011567
  C       1.589454     -0.078096      3.261782
  C       2.363407      0.488179      4.318182
  H       0.801980     -0.811191      3.400692
  C       3.267113      1.408122      3.861924
  H       2.245728      0.237859      5.367759
  H       3.966252      1.994463      4.448727
  H       1.585361      0.764527     -0.307897
  B       2.618938     -1.688543      0.625234
  O       3.933094     -1.454429      0.413957
  O       2.322124     -2.731356      1.438537
  C       4.653960     -2.342536      1.314886
  C       3.575724     -3.443957      1.636450
  C       5.883389     -2.856403      0.580095
  H       6.566382     -2.025289      0.387217
  H       6.411466     -3.598099      1.188730
  H       5.621152     -3.310693     -0.377757
  C       5.064358     -1.518461      2.534224
  H       5.648723     -0.657892      2.200158
  H       4.195758     -1.140988      3.080562
  H       5.680233     -2.113595      3.216325
  C       3.618100     -3.977268      3.061438
  H       2.838157     -4.731493      3.194040
  H       4.586432     -4.448993      3.263912
  H       3.453411     -3.181098      3.791751
  C       3.555607     -4.591826      0.625494
  H       4.432692     -5.237688      0.727969
  H       2.658853     -5.192739      0.796069
  H       3.515852     -4.214208     -0.401529
  N      -0.910390      1.873903     -0.100582
  C      -1.760372      2.600879     -1.017878
  H      -2.696727      2.970195     -0.560622
  H      -1.213209      3.474069     -1.387845
  H      -2.016168      1.970533     -1.873088
  C      -0.522353      2.700878      1.032817
  H       0.084133      3.543823      0.684451
  H      -1.400131      3.102203      1.569935
  H       0.072529      2.128025      1.744592
  S       3.182251      1.573440      2.152961
51
Coordinates from ORCA-job input_IRC_Full E -1355.104046093662
  C      -2.048549     -2.067029      0.891727
  C      -0.715430     -1.668370      0.964188
  C      -0.304092     -0.376485      0.616765
  C      -1.299837      0.546344      0.222861
  C      -2.637417      0.142941      0.146753
  C      -3.009485     -1.157880      0.469879
  H      -2.327531     -3.083745      1.151243
  H       0.027807     -2.397169      1.276608
  H      -3.399330      0.851751     -0.160929
  H      -4.053440     -1.450618      0.401173
  B       1.223062      0.097596      0.629782
  H       1.758774     -1.118978     -0.056317
  C       1.905790      0.402660      2.009010
  C       1.590159     -0.079174      3.258214
  C       2.364543      0.488605      4.318967
  H       0.800773     -0.811405      3.399896
  C       3.267730      1.408697      3.865020
  H       2.246022      0.238017      5.369105
  H       3.967940      1.995463      4.450715
  H       1.584905      0.764388     -0.309717
  B       2.619550     -1.693665      0.622645
  O       3.931469     -1.451403      0.415343
  O       2.320107     -2.727616      1.439230
  C       4.655246     -2.342711      1.316069
  C       3.576670     -3.443955      1.637230
  C       5.883426     -2.856140      0.579528
  H       6.566447     -2.024996      0.387375
  H       6.411309     -3.598400      1.189014
  H       5.620992     -3.311203     -0.378432
  C       5.064844     -1.517626      2.535046
  H       5.648751     -0.657605      2.200173
  H       4.195353     -1.140470      3.080863
  H       5.680577     -2.114157      3.216601
  C       3.618096     -3.977743      3.062334
  H       2.838049     -4.731761      3.193675
  H       4.587576     -4.449485      3.264062
  H       3.453406     -3.180286      3.792636
  C       3.554537     -4.591870      0.624570
  H       4.433111     -5.237876      0.728169
  H       2.658454     -5.192776      0.795988
  H       3.515484     -4.213833     -0.402535
  N      -0.910173      1.873532     -0.100571
  C      -1.760156      2.600776     -1.017822
  H      -2.696679      2.970186     -0.560488
  H      -1.213157      3.474031     -1.387686
  H      -2.016281      1.970460     -1.873037
  C      -0.521664      2.700667      1.033054
  H       0.084143      3.543747      0.684220
  H      -1.400206      3.102126      1.569873
  H       0.072827      2.127908      1.744812
  S       3.181559      1.572533      2.149726
51
Coordinates from ORCA-job input_IRC_Full E -1355.103150232789
  C      -2.056478     -2.081670      0.887745
  C      -0.715417     -1.709099      0.934651
  C      -0.284165     -0.421332      0.595017
  C      -1.269420      0.524243      0.228420
  C      -2.615110      0.144820      0.174022
  C      -3.007069     -1.150970      0.492634
  H      -2.349159     -3.095760      1.142025
  H       0.021924     -2.454716      1.218853
  H      -3.368782      0.870221     -0.113266
  H      -4.057303     -1.422678      0.440337
  B       1.264499     -0.025461      0.553238
  H       1.776714     -1.140408     -0.069332
  C       1.998461      0.254564      1.965324
  C       1.621544     -0.155756      3.226950
  C       2.294771      0.510506      4.281869
  H       0.876722     -0.929622      3.371969
  C       3.181175      1.444858      3.815836
  H       2.126599      0.315920      5.333816
  H       3.814946      2.098679      4.399298
  H       1.621311      0.737527     -0.300163
  B       2.598436     -1.501112      0.821017
  O       3.914588     -1.366729      0.485733
  O       2.306589     -2.625459      1.549843
  C       4.633138     -2.301589      1.325789
  C       3.535971     -3.383852      1.638305
  C       5.830747     -2.820080      0.543781
  H       6.535107     -2.003567      0.367664
  H       6.347852     -3.600565      1.110853
  H       5.533796     -3.227544     -0.423572
  C       5.103620     -1.543186      2.566759
  H       5.698628     -0.684253      2.248648
  H       4.263676     -1.171244      3.158626
  H       5.724359     -2.180253      3.202920
  C       3.628596     -3.997032      3.027582
  H       2.835373     -4.737627      3.156940
  H       4.591015     -4.500975      3.160186
  H       3.518015     -3.238958      3.804361
  C       3.445801     -4.478594      0.575597
  H       4.308310     -5.149560      0.614216
  H       2.541189     -5.065163      0.752359
  H       3.380265     -4.048424     -0.427326
  N      -0.869591      1.849047     -0.096222
  C      -1.728904      2.591137     -0.993173
  H      -2.654144      2.965782     -0.517900
  H      -1.180245      3.461961     -1.366381
  H      -2.005239      1.969249     -1.847925
  C      -0.459235      2.660577      1.039505
  H       0.132459      3.513279      0.690105
  H      -1.325686      3.047602      1.605159
  H       0.156353      2.078495      1.724986
  S       3.195248      1.510436      2.104254
51
Coordinates from ORCA-job input_IRC_Full E -1355.101238634573
  C      -2.064407     -2.096311      0.883763
  C      -0.715404     -1.749828      0.905114
  C      -0.264238     -0.466179      0.573269
  C      -1.239003      0.502142      0.233979
  C      -2.592803      0.146699      0.201291
  C      -3.004653     -1.144060      0.515389
  H      -2.370787     -3.107775      1.132807
  H       0.016041     -2.512263      1.161098
  H      -3.338234      0.888691     -0.065603
  H      -4.061166     -1.394738      0.479501
  B       1.305936     -0.148518      0.476694
  H       1.794654     -1.161838     -0.082347
  C       2.091132      0.106468      1.921638
  C       1.652929     -0.232338      3.195686
  C       2.224999      0.532407      4.244771
  H       0.952671     -1.047839      3.344042
  C       3.094620      1.481019      3.766652
  H       2.007176      0.393823      5.298527
  H       3.661952      2.201895      4.347881
  H       1.657717      0.710666     -0.290609
  B       2.577322     -1.308559      1.019389
  O       3.897707     -1.282055      0.556123
  O       2.293071     -2.523302      1.660456
  C       4.611030     -2.260467      1.335509
  C       3.495272     -3.323749      1.639380
  C       5.778068     -2.784020      0.508034
  H       6.503767     -1.982138      0.347953
  H       6.284395     -3.602730      1.032692
  H       5.446600     -3.143885     -0.468712
  C       5.142396     -1.568746      2.598472
  H       5.748505     -0.710901      2.297123
  H       4.331999     -1.202018      3.236389
  H       5.768141     -2.246349      3.189239
  C       3.639096     -4.016321      2.992830
  H       2.832697     -4.743493      3.120205
  H       4.594454     -4.552465      3.056310
  H       3.582624     -3.297630      3.816086
  C       3.337065     -4.365318      0.526624
  H       4.183509     -5.061244      0.500263
  H       2.423924     -4.937550      0.708730
  H       3.245046     -3.883015     -0.452117
  N      -0.829009      1.824562     -0.091873
  C      -1.697652      2.581498     -0.968524
  H      -2.611609      2.961378     -0.475312
  H      -1.147333      3.449891     -1.345076
  H      -1.994197      1.968038     -1.822813
  C      -0.396806      2.620487      1.045956
  H       0.180775      3.482811      0.695990
  H      -1.251166      2.993078      1.640445
  H       0.239879      2.029082      1.705160
  S       3.208937      1.448339      2.058782
51
Coordinates from ORCA-job input_IRC_Full E -1355.103224574253
  C      -2.064402     -2.096541      0.883434
  C      -0.714764     -1.750036      0.904497
  C      -0.266881     -0.465386      0.573125
  C      -1.238941      0.501322      0.234327
  C      -2.592454      0.146715      0.201434
  C      -3.004490     -1.143779      0.515770
  H      -2.370817     -3.108070      1.133040
  H       0.016580     -2.512315      1.161192
  H      -3.338230      0.888798     -0.065462
  H      -4.061219     -1.394956      0.479716
  B       1.284888     -0.126749      0.471171
  H       1.803192     -1.170112     -0.078441
  C       2.092629      0.120313      1.933959
  C       1.649256     -0.229847      3.202741
  C       2.223070      0.532010      4.243120
  H       0.954333     -1.046359      3.345328
  C       3.092176      1.481138      3.761005
  H       2.007234      0.393086      5.295361
  H       3.659191      2.198898      4.343575
  H       1.657626      0.711033     -0.290205
  B       2.589998     -1.329948      1.007424
  O       3.905207     -1.283048      0.557371
  O       2.296995     -2.529766      1.664758
  C       4.611051     -2.260240      1.335401
  C       3.494491     -3.324151      1.639969
  C       5.776927     -2.783691      0.508549
  H       6.503445     -1.982528      0.347462
  H       6.284071     -3.601827      1.031797
  H       5.446746     -3.143064     -0.467732
  C       5.142000     -1.570394      2.597021
  H       5.748568     -0.711490      2.297283
  H       4.332843     -1.203175      3.235798
  H       5.767639     -2.245285      3.189167
  C       3.639048     -4.015546      2.990915
  H       2.833040     -4.743118      3.120718
  H       4.592342     -4.551462      3.055965
  H       3.582575     -3.299231      3.813961
  C       3.336772     -4.363175      0.527737
  H       4.181551     -5.059469      0.500080
  H       2.424163     -4.937327      0.708663
  H       3.245476     -3.883341     -0.451055
  N      -0.828500      1.824461     -0.091707
  C      -1.697340      2.581344     -0.967979
  H      -2.611568      2.961278     -0.475463
  H      -1.147334      3.449906     -1.345256
  H      -1.993793      1.968237     -1.822768
  C      -0.396860      2.620325      1.045640
  H       0.180970      3.482857      0.696365
  H      -1.250551      2.992826      1.640533
  H       0.239646      2.029018      1.705111
  S       3.210044      1.447194      2.062840
51
Coordinates from ORCA-job input_IRC_Full E -1355.103404997552
  C      -2.064476     -2.096754      0.883284
  C      -0.714920     -1.750214      0.904297
  C      -0.268225     -0.465018      0.572931
  C      -1.240346      0.501930      0.234165
  C      -2.593434      0.146728      0.201455
  C      -3.004281     -1.143882      0.515971
  H      -2.370772     -3.108102      1.133111
  H       0.017026     -2.512140      1.161155
  H      -3.338388      0.888881     -0.065398
  H      -4.061150     -1.395033      0.479888
  B       1.285008     -0.124184      0.473947
  H       1.805085     -1.171047     -0.075621
  C       2.089378      0.121683      1.933424
  C       1.648286     -0.228057      3.202674
  C       2.222654      0.533007      4.243521
  H       0.954297     -1.045972      3.346397
  C       3.091191      1.481237      3.760976
  H       2.007241      0.392911      5.295616
  H       3.658727      2.198549      4.342342
  H       1.657337      0.713280     -0.292007
  B       2.589990     -1.333002      1.002225
  O       3.906972     -1.284147      0.557201
  O       2.298517     -2.530644      1.665266
  C       4.612551     -2.261512      1.336228
  C       3.496005     -3.325278      1.640318
  C       5.777525     -2.784068      0.508610
  H       6.503251     -1.982589      0.347272
  H       6.284267     -3.601805      1.031506
  H       5.446540     -3.142733     -0.467485
  C       5.142390     -1.570831      2.597149
  H       5.748570     -0.711872      2.297235
  H       4.332903     -1.203740      3.235452
  H       5.767678     -2.245089      3.189331
  C       3.639179     -4.016133      2.990905
  H       2.832987     -4.743076      3.120804
  H       4.592111     -4.551528      3.055832
  H       3.582507     -3.299476      3.813162
  C       3.336693     -4.363064      0.527855
  H       4.181046     -5.058943      0.499947
  H       2.424094     -4.937110      0.708743
  H       3.245589     -3.883097     -0.450773
  N      -0.828544      1.824468     -0.091731
  C      -1.697197      2.581320     -0.967906
  H      -2.611478      2.961184     -0.475490
  H      -1.147309      3.449848     -1.345261
  H      -1.993563      1.968307     -1.822753
  C      -0.396765      2.620231      1.045688
  H       0.181102      3.482834      0.696517
  H      -1.250355      2.992724      1.640614
  H       0.239617      2.028936      1.705195
  S       3.210527      1.447414      2.063469
51
Coordinates from ORCA-job input_IRC_Full E -1355.103509808583
  C      -2.064372     -2.096825      0.883139
  C      -0.715099     -1.750243      0.904095
  C      -0.268766     -0.464700      0.572797
  C      -1.241290      0.502228      0.234085
  C      -2.594024      0.146740      0.201505
  C      -3.004284     -1.143979      0.516106
  H      -2.370781     -3.108236      1.133183
  H       0.017374     -2.511908      1.161100
  H      -3.338810      0.889040     -0.065386
  H      -4.061170     -1.395166      0.480065
  B       1.284959     -0.121936      0.475639
  H       1.806180     -1.171553     -0.073710
  C       2.087019      0.123180      1.933509
  C       1.647589     -0.226413      3.202454
  C       2.221968      0.533496      4.243703
  H       0.954036     -1.045659      3.347337
  C       3.090578      1.481448      3.760914
  H       2.007247      0.392812      5.295881
  H       3.658548      2.198491      4.341538
  H       1.656895      0.714626     -0.293135
  B       2.590378     -1.335551      0.998704
  O       3.908189     -1.285186      0.556936
  O       2.299709     -2.531236      1.665425
  C       4.613580     -2.262401      1.336726
  C       3.497026     -3.326022      1.640557
  C       5.778042     -2.784400      0.508678
  H       6.503213     -1.982579      0.347099
  H       6.284687     -3.602015      1.031287
  H       5.446350     -3.142509     -0.467322
  C       5.142713     -1.571189      2.597275
  H       5.748622     -0.712164      2.297180
  H       4.332886     -1.204227      3.235156
  H       5.767881     -2.245033      3.189645
  C       3.639322     -4.016640      2.990906
  H       2.832872     -4.743153      3.120866
  H       4.592128     -4.551802      3.055829
  H       3.582468     -3.299608      3.812586
  C       3.336691     -4.363023      0.527925
  H       4.180802     -5.058742      0.499751
  H       2.424010     -4.936901      0.708844
  H       3.245673     -3.882824     -0.450549
  N      -0.828649      1.824485     -0.091702
  C      -1.697143      2.581352     -0.967906
  H      -2.611419      2.961124     -0.475512
  H      -1.147256      3.449849     -1.345274
  H      -1.993365      1.968358     -1.822754
  C      -0.396704      2.620161      1.045722
  H       0.181221      3.482785      0.696644
  H      -1.250206      2.992648      1.640701
  H       0.239602      2.028846      1.705272
  S       3.210515      1.447484      2.063740
51
Coordinates from ORCA-job input_IRC_Full E -1355.103662834801
  C      -2.064028     -2.096947      0.882799
  C      -0.715368     -1.750084      0.903584
  C      -0.269488     -0.463959      0.572520
  C      -1.243062      0.502682      0.233960
  C      -2.595169      0.146849      0.201627
  C      -3.004593     -1.144224      0.516360
  H      -2.370788     -3.108543      1.133318
  H       0.018122     -2.511224      1.160923
  H      -3.340082      0.889390     -0.065351
  H      -4.061285     -1.395585      0.480548
  B       1.284773     -0.117005      0.478846
  H       1.807882     -1.172234     -0.070073
  C       2.082114      0.126974      1.933837
  C       1.645579     -0.222975      3.202103
  C       2.220209      0.534523      4.244113
  H       0.953200     -1.044618      3.349465
  C       3.089497      1.482181      3.760854
  H       2.007233      0.392652      5.296473
  H       3.658395      2.198613      4.339967
  H       1.655628      0.717093     -0.295322
  B       2.591627     -1.341073      0.991846
  O       3.910624     -1.287696      0.556106
  O       2.302233     -2.532433      1.665440
  C       4.615740     -2.264331      1.337653
  C       3.499138     -3.327582      1.641025
  C       5.779352     -2.785229      0.508821
  H       6.503301     -1.982549      0.346691
  H       6.286082     -3.602815      1.030749
  H       5.445936     -3.142087     -0.466967
  C       5.143468     -1.572003      2.597595
  H       5.748812     -0.712834      2.297060
  H       4.332771     -1.205392      3.234443
  H       5.768574     -2.245023      3.190612
  C       3.639740     -4.017892      2.990954
  H       2.832567     -4.743479      3.120983
  H       4.592394     -4.552763      3.056014
  H       3.582430     -3.299854      3.811393
  C       3.336825     -4.363070      0.528011
  H       4.180475     -5.058651      0.499134
  H       2.423812     -4.936353      0.709113
  H       3.245859     -3.882092     -0.450026
  N      -0.829008      1.824555     -0.091588
  C      -1.697062      2.581497     -0.967952
  H      -2.611335      2.961037     -0.475581
  H      -1.147095      3.449917     -1.345302
  H      -1.992907      1.968467     -1.822801
  C      -0.396591      2.620010      1.045817
  H       0.181512      3.482611      0.696938
  H      -1.249886      2.992497      1.640950
  H       0.239556      2.028613      1.705449
  S       3.209923      1.447772      2.064121
