51
Coordinates from ORCA-job input_IRC_F E -1355.103662834801
  C          -2.06402841733875     -2.09694658490939      0.88279915694173
  C          -0.71536758854189     -1.75008416408173      0.90358435723490
  C          -0.26948817264150     -0.46395865129501      0.57251984770427
  C          -1.24306158238939      0.50268246230229      0.23395955874219
  C          -2.59516946313525      0.14684941729941      0.20162705365071
  C          -3.00459258501982     -1.14422352577259      0.51636026417862
  H          -2.37078846021314     -3.10854302160388      1.13331847601576
  H           0.01812202760481     -2.51122440443804      1.16092281419729
  H          -3.34008191736941      0.88938966049584     -0.06535055190086
  H          -4.06128528912450     -1.39558458450020      0.48054819490928
  B           1.28477323019914     -0.11700538418243      0.47884648188291
  H           1.80788158833637     -1.17223380723518     -0.07007319317666
  C           2.08211379105201      0.12697360053533      1.93383693519355
  C           1.64557926866526     -0.22297528844031      3.20210308659541
  C           2.22020873248076      0.53452282321505      4.24411326703711
  H           0.95320024928870     -1.04461814059426      3.34946548332941
  C           3.08949715151361      1.48218090426929      3.76085392055578
  H           2.00723297372061      0.39265222803269      5.29647285369612
  H           3.65839494440180      2.19861330729475      4.33996662767120
  H           1.65562847768797      0.71709345729731     -0.29532150516518
  B           2.59162728586584     -1.34107330517659      0.99184640285224
  O           3.91062390526844     -1.28769644044718      0.55610615711978
  O           2.30223312259962     -2.53243336022286      1.66543962405777
  C           4.61574038220094     -2.26433085928280      1.33765280187624
  C           3.49913750840596     -3.32758237242448      1.64102457696339
  C           5.77935193352398     -2.78522927890849      0.50882071463522
  H           6.50330109309774     -1.98254854908463      0.34669088910529
  H           6.28608204033361     -3.60281469109244      1.03074899808438
  H           5.44593636519871     -3.14208692204375     -0.46696698752411
  C           5.14346846728673     -1.57200317662285      2.59759460592952
  H           5.74881157808478     -0.71283423810712      2.29705968037069
  H           4.33277096347072     -1.20539226801743      3.23444302266235
  H           5.76857434780083     -2.24502347571635      3.19061190689878
  C           3.63973966569278     -4.01789240465056      2.99095394410089
  H           2.83256688976072     -4.74347868826133      3.12098291323303
  H           4.59239383458791     -4.55276330865445      3.05601423823859
  H           3.58243034874968     -3.29985413832966      3.81139338254501
  C           3.33682497910414     -4.36306985072648      0.52801106962123
  H           4.18047537466661     -5.05865094539020      0.49913379325874
  H           2.42381214553259     -4.93635295275833      0.70911270566056
  H           3.24585861213891     -3.88209208784761     -0.45002622541279
  N          -0.82900785048403      1.82455525928017     -0.09158757050389
  C          -1.69706246459505      2.58149719390616     -0.96795165410021
  H          -2.61133493805604      2.96103674219336     -0.47558135171564
  H          -1.14709474260274      3.44991656799093     -1.34530150927706
  H          -1.99290670666783      1.96846685909884     -1.82280070204989
  C          -0.39659137293638      2.62000953694589      1.04581669638927
  H           0.18151208294750      3.48261064260962      0.69693843695104
  H          -1.24988568699520      2.99249688260019      1.64094952126859
  H           0.23955601942721      2.02861348239528      1.70544888889232
  S           3.20992306719476      1.44777169538438      2.06412087609153
