51
Coordinates from ORCA-job input_IRC_B E -1355.105560665076
  C          -2.04753720080670     -2.06632911690130      0.89121148076185
  C          -0.71535649761150     -1.66596966680011      0.96653421249441
  C          -0.31046065793738     -0.37028375409471      0.62269740480518
  C          -1.30522156011702      0.54816664691895      0.22355085974304
  C          -2.64035878660550      0.14276656621371      0.14457987527028
  C          -3.00959397695901     -1.15823159844890      0.46889855024202
  H          -2.32682263674019     -3.08365369205740      1.15111938419562
  H           0.03002869609512     -2.39542708450860      1.27582455556638
  H          -3.40168098585118      0.85262133027022     -0.16161369811103
  H          -4.05361769910621     -1.45177686525284      0.40164367238924
  B           1.19903538856120      0.12800061258860      0.62918405954501
  H           1.77933232679052     -1.14508029078351     -0.05714073768648
  C           1.91717637909391      0.40080871184992      2.01394701714969
  C           1.58952721913112     -0.07513971048330      3.26357529516119
  C           2.36037527592078      0.48807477184892      4.31808598687866
  H           0.80515535730875     -0.81132209104997      3.40566094027067
  C           3.26508823571269      1.40676326912352      3.85845331061383
  H           2.24404842397409      0.23683169229765      5.36603587902012
  H           3.96244166527871      1.99284687918746      4.44284600726364
  H           1.58640035370814      0.77229427354704     -0.30463028795994
  B           2.62320157073119     -1.68408860710464      0.63205061792846
  O           3.93910821979759     -1.46294648155611      0.40983891075326
  O           2.32654587484235     -2.73796939128617      1.43730180557272
  C           4.65460141469654     -2.34550990009168      1.31274061022297
  C           3.57679053428804     -3.44638906301483      1.63485705979643
  C           5.88498072501775     -2.85802312440026      0.58145372407758
  H           6.56627027608997     -2.02603071056724      0.38703142580876
  H           6.41381103350419     -3.59850277250072      1.18895588768460
  H           5.62189991013236     -3.30987190259794     -0.37630893584168
  C           5.06312689503483     -1.52083261269514      2.53135092327937
  H           5.64792159159932     -0.65983769980435      2.19860834191889
  H           4.19569723273934     -1.14361618748504      3.07883762683136
  H           5.67894710937711     -2.11259467145220      3.21492104617951
  C           3.61738086830059     -3.97712202926020      3.05909480457091
  H           2.83750571469757     -4.73067651984457      3.19477440652276
  H           4.58405839265887     -4.44826505860567      3.26343466776995
  H           3.45264687421760     -3.18180735537259      3.78834010020543
  C           3.55873685528569     -4.59412845155614      0.62707179868853
  H           4.43460475280635     -5.23965260956304      0.72817745657041
  H           2.66100407381379     -5.19363732662359      0.79712433181872
  H           3.51831374420796     -4.21563768271279     -0.39862536647155
  N          -0.91290476580436      1.87536287043133     -0.10038241085394
  C          -1.76145055308319      2.60179005658415     -1.01882687468063
  H          -2.69768833054485      2.97071141805703     -0.56171509084251
  H          -1.21365789815989      3.47456421060678     -1.38885790284087
  H          -2.01588565132069      1.97086414642497     -1.87384642628897
  C          -0.52469925835280      2.70218242242782      1.03246145440201
  H           0.08354109275705      3.54444375876940      0.68534170782200
  H          -1.40116135945973      3.10347278002770      1.57074185350425
  H           0.07031857691149      2.12891304815013      1.74388794177737
  S           3.18453795225117      1.57487271051610      2.15631175986794
