58
	Energy:    6387.2048497
C         -2.05648       -2.08167        0.88775
C         -0.71542       -1.70910        0.93465
C         -0.28417       -0.42133        0.59502
C         -1.26942        0.52424        0.22842
C         -2.61511        0.14482        0.17402
C         -3.00707       -1.15097        0.49263
H         -2.34916       -3.09576        1.14203
H          0.02192       -2.45472        1.21885
H         -3.36878        0.87022       -0.11327
H         -4.05730       -1.42268        0.44034
B          1.26450       -0.02546        0.55324
H          1.77671       -1.14041       -0.06933
C          1.99846        0.25456        1.96532
C          1.62154       -0.15576        3.22695
C          2.29477        0.51051        4.28187
H          0.87672       -0.92962        3.37197
C          3.18118        1.44486        3.81584
H          2.12660        0.31592        5.33382
H          3.81495        2.09868        4.39930
H          1.62131        0.73753       -0.30016
B          2.59844       -1.50111        0.82102
O          3.91459       -1.36673        0.48573
O          2.30659       -2.62546        1.54984
C          4.63314       -2.30159        1.32579
C          3.53597       -3.38385        1.63830
C          5.83075       -2.82008        0.54378
H          6.53511       -2.00357        0.36766
H          6.34785       -3.60057        1.11085
H          5.53380       -3.22754       -0.42357
C          5.10362       -1.54319        2.56676
H          5.69863       -0.68425        2.24865
H          4.26368       -1.17124        3.15863
H          5.72436       -2.18025        3.20292
C          3.62860       -3.99703        3.02758
H          2.83537       -4.73763        3.15694
H          4.59101       -4.50098        3.16019
H          3.51802       -3.23896        3.80436
C          3.44580       -4.47859        0.57560
H          4.30831       -5.14956        0.61422
H          2.54119       -5.06516        0.75236
H          3.38027       -4.04842       -0.42733
N         -0.86959        1.84905       -0.09622
C         -1.61479        2.56829       -1.12848
C         -0.40969        2.68835        1.01271
S          3.19525        1.51044        2.10425
C          0.44888        3.84519        0.49107
H          0.17154        2.12116        1.76000
H         -1.29570        3.09377        1.55029
C         -0.33795        4.65087       -0.54569
H          1.36914        3.43350        0.02111
H          0.75067        4.50304        1.33417
C         -0.77332        3.72426       -1.68346
H          0.29524        5.47106       -0.94660
H         -1.23505        5.10286       -0.06725
H          0.13021        3.31009       -2.18326
H         -1.36019        4.29288       -2.43626
H         -2.56117        2.96909       -0.70177
H         -1.86244        1.88775       -1.97297
