58
	Energy:     368.9566479
C         -2.23495       -1.44824        0.97690
C         -1.07095       -0.72541        0.63015
C         -0.02669       -1.43321        0.02758
C         -0.09927       -2.80246       -0.22444
C         -1.24558       -3.49625        0.13450
C         -2.30963       -2.82007        0.72893
H          0.88674       -0.89680       -0.21551
H          0.73793       -3.32013       -0.68246
H         -1.32366       -4.56413       -0.04788
H         -3.20488       -3.37229        0.99636
N         -3.30029       -0.75641        1.62935
B         -0.87051        0.81403        0.96092
H          1.94202        3.87821       -0.00485
H          3.52012        3.08685       -0.18651
H          2.02499        2.13347       -0.27389
C          4.10277        0.76092        1.23660
H          4.99242        1.39511        1.16825
H          4.40963       -0.21763        1.61473
H          3.69004        0.62349        0.23607
C          3.60051        1.35136        3.61735
H          3.75987        0.31197        3.91459
H          4.54848        1.88825        3.71206
H          2.87552        1.79431        4.30580
C         -0.56853        0.98464        2.87602
C         -0.69782       -0.22387        3.56454
C         -1.63249       -0.20704        4.60713
H         -1.74807        1.61282        0.80888
H          0.17621        1.24352        0.51534
C          2.54872        2.78837        1.74158
C          3.07798        1.37488        2.17971
O          1.18545        2.76272        2.21329
O          1.88496        0.56714        2.15676
B          0.81869        1.43772        2.25811
C          3.26051        3.96439        2.39505
H          2.83280        4.90101        2.02862
H          3.15086        3.94277        3.48030
H          4.32666        3.95511        2.14702
C          2.51264        2.97498        0.22399
H         -0.11681       -1.09227        3.27755
C         -2.22153        1.03211        4.73611
H         -1.87656       -1.05678        5.23114
H         -2.98493        1.31622        5.44874
S         -1.64065        2.15774        3.60861
C         -3.92093        0.42289        0.99687
C         -4.09726       -1.46979        2.64890
C         -5.17596       -0.55901        3.23837
H         -3.43454       -1.81290        3.46761
H         -4.60974       -2.35308        2.21816
C         -6.13019       -0.04670        2.14590
H         -4.63846        0.31132        3.66999
H         -5.74911       -1.03428        4.06269
C         -5.41487        0.15821        0.79683
H         -6.55951        0.90629        2.52496
H         -6.97196       -0.75032        1.96672
H         -3.49410        0.59933       -0.01446
H         -3.80102        1.32555        1.63327
H         -5.93134        0.94614        0.20799
H         -5.47111       -0.78772        0.21188
