74
Coordinates from ORCA-job input_IRC_B E -1325.540042215495
  C      -2.115124     -1.924595      1.298995
  C      -0.773503     -1.560797      1.246457
  C      -0.371767     -0.288893      0.815608
  C      -1.366112      0.628998      0.422631
  C      -2.714191      0.260690      0.494707
  C      -3.090618     -1.005442      0.930215
  H      -2.397300     -2.918586      1.633260
  H      -0.018280     -2.283915      1.544065
  H      -3.475981      0.975955      0.205853
  H      -4.142930     -1.269720      0.979517
  B       1.136187      0.203780      0.848964
  H       1.709136     -1.076986     -0.050898
  C       1.885066      0.256378      2.206590
  C       1.532210     -0.264829      3.448202
  C       2.397514      0.268255      4.424738
  H       0.703038     -0.939858      3.610814
  C       3.270473      1.109360      3.759726
  H       2.386898      0.080765      5.489244
  H       4.087863      1.711245      4.134785
  H       1.537201      0.922833     -0.023894
  B       2.572971     -1.656695      0.553345
  O       3.886447     -1.350643      0.381400
  O       2.324307     -2.776721      1.281329
  C       4.637274     -2.281144      1.204023
  C       3.599597     -3.443617      1.436537
  C       5.881188     -2.682938      0.426180
  H       6.536284     -1.815412      0.313745
  H       6.435315     -3.460847      0.960865
  H       5.631474     -3.051390     -0.569932
  C       5.021828     -1.549179      2.487010
  H       5.568849     -0.639682      2.224895
  H       4.142500     -1.260117      3.066380
  H       5.668739     -2.172351      3.111766
  C       3.651104     -4.073446      2.819385
  H       2.892782     -4.856913      2.891659
  H       4.630652     -4.528094      2.998026
  H       3.453951     -3.334539      3.597768
  C       3.638807     -4.516789      0.348752
  H       4.549031     -5.119665      0.407621
  H       2.776349     -5.175602      0.474277
  H       3.578306     -4.069261     -0.647168
  N       2.971595      1.090268      2.434559
  C       3.694874      1.820954      1.412793
  H       4.091311      1.124939      0.669795
  H       3.040938      2.541408      0.914735
  H       4.521144      2.356808      1.883204
  C      -1.032648      2.139980     -1.509434
  C      -1.091589      3.055199      0.906140
  C      -0.087382      3.300156     -1.871832
  C      -0.155590      4.187195      0.442829
  C      -0.321071      4.545639     -1.027560
  H      -0.197852      3.523888     -2.939009
  H       0.943496      2.957573     -1.715043
  H      -0.318611      5.063110      1.081006
  H       0.878302      3.856007      0.606473
  H       0.391842      5.328983     -1.306728
  H      -1.320165      4.957928     -1.213912
  N      -0.964240      1.923686     -0.043058
  C      -0.518805      0.886124     -2.236716
  H       0.473774      0.604749     -1.879596
  H      -1.189321      0.033997     -2.100969
  H      -0.452660      1.096412     -3.308874
  C      -2.446164      2.427539     -2.067347
  H      -2.400276      2.511011     -3.158544
  H      -3.133235      1.611898     -1.830252
  H      -2.874845      3.355688     -1.687120
  C      -2.529368      3.596261      1.078048
  H      -3.202252      2.803131      1.413830
  H      -2.541415      4.381270      1.841399
  H      -2.937645      4.024583      0.161668
  C      -0.613464      2.619301      2.298388
  H       0.419276      2.266871      2.273945
  H      -0.661976      3.475460      2.978665
  H      -1.232663      1.821579      2.716149
74
Coordinates from ORCA-job input_IRC_B E -1325.540222872682
  C      -2.114929     -1.924553      1.298951
  C      -0.773161     -1.560432      1.246937
  C      -0.372610     -0.287902      0.816772
  C      -1.366576      0.629102      0.422943
  C      -2.714616      0.260469      0.494247
  C      -3.090742     -1.005710      0.930079
  H      -2.397286     -2.918723      1.633209
  H      -0.018102     -2.284167      1.543974
  H      -3.476382      0.976096      0.205811
  H      -4.143109     -1.269891      0.979401
  B       1.132567      0.207674      0.848775
  H       1.709937     -1.079941     -0.054529
  C       1.886164      0.256761      2.207128
  C       1.531390     -0.263719      3.449847
  C       2.397531      0.268096      4.425064
  H       0.703262     -0.939510      3.611322
  C       3.270959      1.109133      3.759950
  H       2.386868      0.080623      5.489178
  H       4.087493      1.710816      4.134390
  H       1.537557      0.922437     -0.022793
  B       2.573266     -1.654843      0.556414
  O       3.887725     -1.353231      0.379113
  O       2.325265     -2.779117      1.279388
  C       4.637238     -2.281947      1.203296
  C       3.600126     -3.444343      1.436165
  C       5.881783     -2.683536      0.426592
  H       6.536287     -1.815459      0.313668
  H       6.435959     -3.461155      0.961018
  H       5.631542     -3.051289     -0.569769
  C       5.021395     -1.549758      2.486231
  H       5.569115     -0.640021      2.224961
  H       4.142589     -1.260323      3.066400
  H       5.668639     -2.171930      3.111901
  C       3.651211     -4.073475      2.819195
  H       2.892710     -4.856942      2.892026
  H       4.630595     -4.528276      2.998330
  H       3.453862     -3.334568      3.597671
  C       3.639816     -4.517363      0.349210
  H       4.549538     -5.120367      0.407385
  H       2.776573     -5.175636      0.474273
  H       3.578646     -4.069557     -0.646934
  N       2.972131      1.091584      2.435149
  C       3.694955      1.821178      1.413030
  H       4.091410      1.125144      0.669794
  H       3.041144      2.541566      0.914776
  H       4.521218      2.356807      1.883283
  C      -1.032913      2.140335     -1.509721
  C      -1.092032      3.055899      0.906170
  C      -0.087541      3.300135     -1.871839
  C      -0.155890      4.187344      0.442763
  C      -0.321198      4.545642     -1.027628
  H      -0.197650      3.523955     -2.939263
  H       0.943642      2.957518     -1.715120
  H      -0.318531      5.063302      1.081252
  H       0.878318      3.856138      0.606644
  H       0.391848      5.329277     -1.306745
  H      -1.320355      4.958161     -1.214095
  N      -0.964396      1.924107     -0.042940
  C      -0.519000      0.886482     -2.236609
  H       0.473756      0.604619     -1.879828
  H      -1.189267      0.033835     -2.101026
  H      -0.452704      1.096306     -3.308989
  C      -2.445996      2.427630     -2.067305
  H      -2.400404      2.510916     -3.158617
  H      -3.133392      1.611871     -1.830323
  H      -2.875001      3.355950     -1.687083
  C      -2.529350      3.596381      1.077936
  H      -3.202509      2.803196      1.413806
  H      -2.541645      4.381383      1.841426
  H      -2.937892      4.024614      0.161443
  C      -0.614070      2.619894      2.298278
  H       0.418807      2.267230      2.274151
  H      -0.662083      3.475716      2.978824
  H      -1.232655      1.821547      2.716290
74
Coordinates from ORCA-job input_IRC_B E -1325.540320220591
  C      -2.114793     -1.924459      1.298900
  C      -0.773115     -1.560085      1.247357
  C      -0.373286     -0.287132      0.817738
  C      -1.367193      0.629331      0.423151
  C      -2.715066      0.260273      0.493932
  C      -3.090735     -1.005881      0.929931
  H      -2.397231     -2.918828      1.633140
  H      -0.017902     -2.284276      1.543901
  H      -3.476802      0.976184      0.205732
  H      -4.143258     -1.270085      0.979299
  B       1.130245      0.210558      0.849282
  H       1.710786     -1.082403     -0.057232
  C       1.886587      0.257198      2.207813
  C       1.531029     -0.262750      3.450527
  C       2.397455      0.268017      4.425249
  H       0.703365     -0.939179      3.611826
  C       3.271185      1.108973      3.759753
  H       2.386884      0.080474      5.489384
  H       4.087556      1.710665      4.134294
  H       1.537803      0.922439     -0.022126
  B       2.573482     -1.653941      0.557851
  O       3.888498     -1.355069      0.377598
  O       2.325876     -2.780599      1.278155
  C       4.637391     -2.282617      1.202821
  C       3.600593     -3.444995      1.435836
  C       5.882383     -2.684083      0.426871
  H       6.536303     -1.815535      0.313644
  H       6.436565     -3.461443      0.961133
  H       5.631665     -3.051289     -0.569662
  C       5.021146     -1.550179      2.485726
  H       5.569276     -0.640339      2.224929
  H       4.142630     -1.260529      3.066321
  H       5.668504     -2.171627      3.111949
  C       3.651306     -4.073584      2.819115
  H       2.892668     -4.856954      2.892310
  H       4.630563     -4.528449      2.998623
  H       3.453803     -3.334570      3.597543
  C       3.640669     -4.518032      0.349432
  H       4.550031     -5.121056      0.407185
  H       2.776819     -5.175729      0.474285
  H       3.578995     -4.069822     -0.646743
  N       2.972265      1.092170      2.435761
  C       3.695067      1.821415      1.413147
  H       4.091475      1.125305      0.669863
  H       3.041339      2.541726      0.914827
  H       4.521404      2.356903      1.883366
  C      -1.033081      2.140524     -1.509859
  C      -1.092341      3.056328      0.906195
  C      -0.087622      3.300204     -1.871831
  C      -0.156098      4.187519      0.442697
  C      -0.321259      4.545698     -1.027681
  H      -0.197483      3.524006     -2.939452
  H       0.943697      2.957488     -1.715182
  H      -0.318472      5.063485      1.081430
  H       0.878255      3.856258      0.606770
  H       0.391813      5.329492     -1.306756
  H      -1.320490      4.958348     -1.214254
  N      -0.964591      1.924452     -0.042857
  C      -0.519131      0.886672     -2.236570
  H       0.473705      0.604552     -1.880016
  H      -1.189222      0.033752     -2.101065
  H      -0.452763      1.096230     -3.309050
  C      -2.445968      2.427726     -2.067318
  H      -2.400515      2.510853     -3.158653
  H      -3.133494      1.611891     -1.830376
  H      -2.875128      3.356142     -1.687080
  C      -2.529467      3.596539      1.077862
  H      -3.202701      2.803279      1.413767
  H      -2.541873      4.381492      1.841422
  H      -2.938117      4.024658      0.161262
  C      -0.614539      2.620358      2.298286
  H       0.418415      2.267584      2.274301
  H      -0.662223      3.475950      2.978961
  H      -1.232687      1.821593      2.716385
74
Coordinates from ORCA-job input_IRC_B E -1325.540481248594
  C      -2.114520     -1.924282      1.298806
  C      -0.773127     -1.559244      1.248443
  C      -0.374921     -0.285285      0.819983
  C      -1.368880      0.630110      0.423598
  C      -2.716304      0.259962      0.493240
  C      -3.090809     -1.006239      0.929527
  H      -2.397010     -2.919004      1.632894
  H      -0.017463     -2.284216      1.543710
  H      -3.477974      0.976281      0.205467
  H      -4.143558     -1.270653      0.979029
  B       1.125782      0.216947      0.851693
  H       1.713020     -1.088223     -0.063255
  C       1.886584      0.258433      2.208995
  C       1.530492     -0.260536      3.451545
  C       2.397470      0.268110      4.425864
  H       0.703391     -0.938327      3.613140
  C       3.271649      1.108642      3.759573
  H       2.386996      0.080113      5.489990
  H       4.088070      1.710435      4.134278
  H       1.538270      0.922985     -0.020886
  B       2.574045     -1.653219      0.559388
  O       3.890030     -1.358898      0.374592
  O       2.327144     -2.783350      1.275779
  C       4.638043     -2.284304      1.201884
  C       3.601764     -3.446600      1.435166
  C       5.883801     -2.685335      0.427320
  H       6.536410     -1.815806      0.313659
  H       6.438230     -3.462285      0.961437
  H       5.632141     -3.051455     -0.569398
  C       5.020728     -1.550986      2.484715
  H       5.569536     -0.641195      2.224696
  H       4.142654     -1.261086      3.065945
  H       5.668155     -2.171060      3.112007
  C       3.651537     -4.073956      2.819049
  H       2.892592     -4.856982      2.892954
  H       4.630527     -4.528923      2.999412
  H       3.453698     -3.334550      3.597125
  C       3.642503     -4.519765      0.349597
  H       4.551446     -5.122975      0.406709
  H       2.777574     -5.176100      0.474321
  H       3.579999     -4.070591     -0.646220
  N       2.972333      1.093113      2.436944
  C       3.695465      1.822026      1.413395
  H       4.091590      1.125678      0.670164
  H       3.041825      2.542168      0.914995
  H       4.521935      2.357215      1.883567
  C      -1.033412      2.140887     -1.510016
  C      -1.093027      3.057196      0.906238
  C      -0.087698      3.300430     -1.871906
  C      -0.156482      4.188031      0.442641
  C      -0.321416      4.545998     -1.027834
  H      -0.197088      3.524120     -2.939787
  H       0.943693      2.957466     -1.715313
  H      -0.318352      5.063936      1.081768
  H       0.877936      3.856575      0.607028
  H       0.391663      5.329950     -1.306777
  H      -1.320733      4.958769     -1.214640
  N      -0.965217      1.925137     -0.042646
  C      -0.519397      0.886944     -2.236539
  H       0.473540      0.604455     -1.880445
  H      -1.189122      0.033641     -2.101137
  H      -0.452949      1.096077     -3.309145
  C      -2.446135      2.428000     -2.067387
  H      -2.400791      2.510741     -3.158733
  H      -3.133681      1.612032     -1.830499
  H      -2.875405      3.356520     -1.687144
  C      -2.530003      3.597007      1.077677
  H      -3.203122      2.803547      1.413633
  H      -2.542496      4.381799      1.841367
  H      -2.938685      4.024793      0.160875
  C      -0.615553      2.621331      2.298405
  H       0.417438      2.268555      2.274637
  H      -0.662676      3.476609      2.979334
  H      -1.232844      1.821850      2.716583
