51
Coordinates from ORCA-job input_IRC_B E -1355.106433192204
  C          -2.27710485424665     -1.47153084058956      0.93789277270196
  C          -1.13810557423992     -0.73786244689250      0.52428307257799
  C          -0.06310980013500     -1.44613837466833     -0.02771130847492
  C          -0.10045770912437     -2.82486304296108     -0.21973036641927
  C          -1.23718590758508     -3.52226173449536      0.16317838244188
  C          -2.31252240079419     -2.85484766249340      0.74794172407354
  H           0.83620926268220     -0.89236916165481     -0.28542262349765
  H           0.74629145330936     -3.34289966498589     -0.65943859070964
  H          -1.30015870803321     -4.59602892922130      0.00536146640953
  H          -3.19199502343067     -3.41960779591152      1.04014239641425
  N          -3.34192754665215     -0.79220810733467      1.58700426955129
  B          -0.99409091263895      0.80507360183428      0.67152660094453
  H           1.92999144086492      3.88297726121687      0.01033512655083
  H           3.50413347496871      3.09214688060214     -0.20890318092242
  H           2.00698717033345      2.13607147085934     -0.24248146597501
  C           4.11498744028855      0.76105653253980      1.21992016222798
  H           5.01373481933219      1.38038640467946      1.13599298963315
  H           4.41219779264349     -0.22172533223706      1.59544289761191
  H           3.68389134902408      0.62772099951942      0.22607682691385
  C           3.64937131068487      1.36241523643738      3.60967038716000
  H           3.79569503608944      0.32038751684827      3.90577641298415
  H           4.60229813877941      1.88990305904632      3.70404200165629
  H           2.93052528218570      1.80917554603227      4.30348846904566
  C          -0.44825689222193      1.04549096368562      3.07480033431017
  C          -0.65801396810780     -0.19754356619369      3.63746687538860
  C          -1.70556024574051     -0.22428178348745      4.58594979636993
  H          -1.89792649972861      1.56371732267061      0.81796903918470
  H           0.05285859992280      1.28200749688831      0.32434937922826
  C           2.59007459188480      2.80719525825914      1.74778803608907
  C           3.11629163850460      1.39211383206287      2.17611291523271
  O           1.24171612901940      2.79718959638108      2.26195645110528
  O           1.91119641541541      0.60081417433346      2.18076758784694
  B           0.88775398149127      1.48576764015353      2.42508706391858
  C           3.31580867345119      3.98215029317834      2.38488948453748
  H           2.87698840551039      4.91713614129114      2.02658522201098
  H           3.21886733436688      3.95992991190061      3.47179556127706
  H           4.37793851057837      3.97794606830777      2.12143068512089
  C           2.50901072134845      2.98303187302625      0.23244241525401
  H          -0.05346480469297     -1.05433715136731      3.36043764329567
  C          -2.29568092223273      1.00501337307437      4.72553519781642
  H          -1.99612304529743     -1.10044583242044      5.15287366375042
  H          -3.11852014920881      1.26989084678787      5.37623804319733
  S          -1.58181991619546      2.18315734692278      3.72085752601130
  C          -4.18261147524336      0.01408295343293      0.71651466615335
  H          -4.87124527047377     -0.60701084803971      0.11843376799051
  H          -4.77535530559385      0.70777270581392      1.32185238121714
  H          -3.56885217982654      0.60178423049011      0.03622242831782
  C          -4.13252593944711     -1.56409304412928      2.52151416550604
  H          -4.69495273596188     -0.87355067830313      3.15928124409673
  H          -4.86044831957357     -2.24112803916353      2.03968257131401
  H          -3.47870561581274     -2.15788735210462      3.16505186668531
