54
Coordinates from ORCA-job input E -914.935198330087
  H           1.07270986050115      0.01909165061646      2.57447632490087
  C           1.90657659104003     -0.01168080377145      1.87904880648206
  C           2.56487771446427      1.16136502435617      1.52193772628053
  C           2.31865711747615     -1.22020166805865      1.32989753782568
  C           3.65363094451246      1.15323864390061      0.63926354734766
  H           2.23533468752011      2.10721495965805      1.94554450110557
  C           3.38203979108473     -1.24902646432973      0.43103763895393
  H           1.80704358217941     -2.14315901746580      1.58937520434397
  C           4.05967081805923     -0.07690200261486      0.08202455605927
  H           3.68152037907200     -2.19417137189719     -0.01001979988928
  B           4.41745976182461      2.48306551407442      0.30968110090571
  H           4.73861245198710      4.07574573601094     -2.70701403337378
  H           4.83544978119928      4.38202455293164     -3.37797062374924
  C           3.66622584404574      3.75114973570782     -0.07317290981565
  C           2.31952652579218      3.91805042776675     -0.41851303736690
  H           8.50164828238464     -0.54122642885322     -1.00367820487643
  H           7.64135478167229      1.00029789899554     -1.01329354978142
  H           5.73189432149621      0.38703303491291     -4.17413642067516
  H           6.03349022201554      1.55416312574008     -2.88295805529937
  H           8.09671229207261      0.29575787679213     -3.32865407309918
  H           7.28122146598293     -1.23457181732037     -3.07800301630542
  N           5.14431408375339     -0.06481375153968     -0.85684554068885
  C           6.69478286998703     -0.25289942944700      1.04998716545469
  H           7.70021944161108     -0.57579270600089      1.33816255502777
  H           6.63433450751277      0.82954826544223      1.16908352750633
  H           5.98383818094628     -0.71403074584428      1.73825252781166
  C           6.50605686241112     -2.20683756679766     -0.44978427656823
  C           2.10385292165475      5.25823470828460     -0.77029582265458
  H           1.59001624591612      3.11710505459125     -0.42614235506984
  C           3.32658270444646      5.89911613895452     -0.63350952870891
  H           1.18049025510556      5.71650462888628     -1.09608612761247
  H           3.59394080096607      6.93400594233360     -0.80597365797687
  N           4.25533532213579      5.00481129941377     -0.22612006501994
  C           5.65385031591761      5.31496261829745      0.02098380581289
  H           5.90456667181782      5.16591938813760      1.07592399151964
  H           6.30087815472895      4.67427650384082     -0.58766702769564
  H           5.83365459063094      6.35835875763283     -0.24376567723009
  C           6.42838549818760     -0.66451266183961     -0.40635063878884
  C           4.77069782218689     -0.08308416302260     -2.29723249809452
  C           7.55179177953977     -0.06306408212361     -1.27133731218261
  C           5.95515749274282      0.48164481532668     -3.10466572926592
  C           7.28606805704640     -0.18270348260515     -2.76826312905370
  H           5.72983265575040     -2.65651684605275      0.17488190229863
  H           6.41527635898892     -2.62125397034767     -1.45405030377430
  H           7.47321466909799     -2.53257737733657     -0.04989358636780
  C           4.36645066624023     -1.47097096755739     -2.84506607423207
  H           3.94388235729083     -1.36412529079102     -3.84812543143968
  H           5.20486641220358     -2.16205991575113     -2.92066038053713
  H           3.59973424142013     -1.93059533629452     -2.21707955749979
  C           3.57073113913423      0.84651479357635     -2.53070910622355
  H           2.65867122147778      0.46516813144714     -2.06389476317450
  H           3.75584686004517      1.85015500096320     -2.14020682951379
  H           3.38815657698080      0.93176800531787     -3.60548594932564
  H           5.61146994574009      2.52716383375261      0.40956242329452
