54
Coordinates from ORCA-job input E -914.937143864409
  C      -1.311737     -2.080873      0.529113
  C      -0.036604     -1.662876      0.933721
  C       0.986693     -2.608141      0.719358
  C       0.765861     -3.855576      0.156870
  C      -0.522092     -4.224845     -0.227304
  C      -1.566645     -3.333694     -0.036078
  H       1.993660     -2.328158      1.018586
  H       1.594192     -4.544570      0.012674
  H      -0.714196     -5.195823     -0.672974
  H      -2.566926     -3.622238     -0.330292
  H      -1.909907     -0.249390      1.000632
  B       0.375605     -0.272038      1.695020
  N      -2.430503     -1.117052      0.731138
  C      -3.294381     -1.395594      1.999605
  C      -3.184486     -0.674227     -0.551661
  C      -4.217508     -0.184131      2.215851
  C      -2.348530     -1.516110      3.197125
  C      -4.104156     -2.690940      1.919381
  C      -4.037902      0.538260     -0.148973
  C      -4.042590     -1.768857     -1.201635
  C      -2.165228     -0.221191     -1.597725
  H      -4.885594     -0.437820      3.045556
  H      -3.609180      0.666944      2.541512
  C      -5.009467      0.232244      0.982211
  H      -1.716747     -2.404327      3.131814
  H      -1.693200     -0.652294      3.303743
  H      -2.964778     -1.596966      4.097055
  H      -3.492412     -3.537960      1.606418
  H      -4.457923     -2.905887      2.930657
  H      -4.986922     -2.621514      1.284804
  H      -4.563777      0.880889     -1.046228
  H      -3.369463      1.355294      0.157621
  H      -4.723927     -1.271201     -1.897433
  H      -3.430948     -2.456268     -1.787555
  H      -4.651045     -2.348142     -0.513191
  H      -1.680036      0.707531     -1.299166
  H      -1.409855     -0.985825     -1.792193
  H      -2.704983     -0.038907     -2.531793
  H      -5.603008      1.121784      1.213297
  H      -5.722241     -0.546245      0.682967
  H       1.534478     -0.025336      1.392813
  C      -0.473296      1.081104      1.393911
  C      -1.221382      1.903362      2.229599
  C      -1.378076      3.176553      1.619615
  H      -1.562875      1.625328      3.219876
  H      -1.846506      4.054809      2.043436
  H       0.338247     -0.486445      2.896958
  C      -0.743644      3.104212      0.402373
  H      -0.577944      3.857336     -0.356278
  N      -0.230494      1.841750      0.260064
  C       0.651931      1.433123     -0.812270
  H       0.380711      1.961157     -1.730956
  H       1.695769      1.638417     -0.562805
  H       0.552668      0.359421     -0.979802
54
Coordinates from ORCA-job input E -914.940183959061
  C      -1.324513     -2.056317      0.546531
  C      -0.042548     -1.646076      0.943857
  C       0.969063     -2.599759      0.711667
  C       0.736703     -3.842928      0.144200
  C      -0.555697     -4.202384     -0.231730
  C      -1.590792     -3.304045     -0.026112
  H       1.980549     -2.326174      0.999781
  H       1.560412     -4.534788     -0.010435
  H      -0.759113     -5.169945     -0.680229
  H      -2.595440     -3.586135     -0.312049
  H      -1.948654     -0.240671      1.065577
  B       0.408275     -0.259210      1.706679
  N      -2.452946     -1.106657      0.772162
  C      -3.320660     -1.435965      2.025389
  C      -3.196317     -0.627871     -0.504194
  C      -4.267540     -0.248270      2.267583
  C      -2.367929     -1.566106      3.215284
  C      -4.112862     -2.742044      1.911640
  C      -4.087905      0.546804     -0.069776
  C      -4.018822     -1.711348     -1.214631
  C      -2.153429     -0.109379     -1.494806
  H      -4.931908     -0.534024      3.090087
  H      -3.677544      0.607805      2.615016
  C      -5.064607      0.176162      1.039016
  H      -1.726992     -2.446014      3.129996
  H      -1.720815     -0.694811      3.323730
  H      -2.972133     -1.663462      4.121656
  H      -3.488239     -3.575835      1.590216
  H      -4.474857     -2.982899      2.914541
  H      -4.988935     -2.675066      1.266155
  H      -4.611054      0.906906     -0.961800
  H      -3.447069      1.370978      0.272957
  H      -4.688393     -1.200067     -1.912131
  H      -3.381995     -2.370419     -1.806314
  H      -4.639464     -2.320071     -0.561415
  H      -1.677438      0.797710     -1.120386
  H      -1.389928     -0.859723     -1.710577
  H      -2.665590      0.134870     -2.429801
  H      -5.693887      1.035836      1.287739
  H      -5.746273     -0.618573      0.711716
  H       1.585475     -0.069542      1.435247
  C      -0.405726      1.098350      1.346398
  C      -1.216292      1.931430      2.110662
  C      -1.422301      3.158058      1.420251
  H      -1.581819      1.687665      3.101677
  H      -1.967697      4.027252      1.762862
  H       0.322836     -0.462240      2.909238
  C      -0.731425      3.055849      0.237894
  H      -0.589605      3.768102     -0.564165
  N      -0.137830      1.821262      0.192104
  C       0.812324      1.417503     -0.823762
  H       0.561829      1.903563     -1.770922
  H       1.833701      1.685365     -0.537491
  H       0.770517      0.335402     -0.957720
54
Coordinates from ORCA-job input E -914.941289810083
  C      -1.333943     -2.055481      0.552303
  C      -0.046529     -1.640871      0.927832
  C       0.962747     -2.592321      0.675711
  C       0.723396     -3.838413      0.117418
  C      -0.574962     -4.204103     -0.229666
  C      -1.607750     -3.306595     -0.009116
  H       1.978779     -2.315120      0.943160
  H       1.546462     -4.527840     -0.050762
  H      -0.785077     -5.174783     -0.668253
  H      -2.616605     -3.592149     -0.275653
  H      -1.960199     -0.241958      1.079908
  B       0.422056     -0.260143      1.697499
  N      -2.461995     -1.106175      0.784864
  C      -3.330498     -1.439839      2.037335
  C      -3.202621     -0.623071     -0.494653
  C      -4.276785     -0.251750      2.278252
  C      -2.376170     -1.571502      3.225697
  C      -4.121788     -2.745868      1.923141
  C      -4.106084      0.542153     -0.060093
  C      -4.010797     -1.709651     -1.216066
  C      -2.152946     -0.094924     -1.473164
  H      -4.937990     -0.530882      3.105539
  H      -3.684633      0.606179      2.617647
  C      -5.077995      0.162449      1.049567
  H      -1.744825     -2.458690      3.143279
  H      -1.718465     -0.707249      3.325719
  H      -2.977746     -1.656723      4.135017
  H      -3.491731     -3.583402      1.623159
  H      -4.501679     -2.974808      2.922335
  H      -4.985959     -2.687147      1.261130
  H      -4.634031      0.897142     -0.951263
  H      -3.471660      1.371608      0.281681
  H      -4.663473     -1.200658     -1.931024
  H      -3.364031     -2.375184     -1.788982
  H      -4.648083     -2.309889     -0.570543
  H      -1.657576      0.791761     -1.075756
  H      -1.403264     -0.852909     -1.710047
  H      -2.662510      0.185066     -2.399511
  H      -5.719575      1.013658      1.296424
  H      -5.751284     -0.640513      0.724865
  H       1.609236     -0.106004      1.447006
  C      -0.358376      1.113291      1.338410
  C      -1.216692      1.919325      2.078841
  C      -1.455490      3.131705      1.371520
  H      -1.587677      1.672081      3.066715
  H      -2.050798      3.978226      1.687467
  H       0.312757     -0.467577      2.897970
  C      -0.731540      3.048854      0.208018
  H      -0.609475      3.755599     -0.602174
  N      -0.085475      1.838808      0.189439
  C       0.889434      1.452120     -0.808952
  H       0.652193      1.941028     -1.757875
  H       1.902082      1.731104     -0.502483
  H       0.864340      0.370086     -0.949774
54
Coordinates from ORCA-job input E -914.941960837146
  C      -1.337930     -2.046668      0.561722
  C      -0.046588     -1.628325      0.920282
  C       0.963753     -2.569993      0.637603
  C       0.721879     -3.813181      0.072949
  C      -0.580747     -4.186018     -0.248297
  C      -1.614459     -3.296034     -0.001444
  H       1.982978     -2.289968      0.889211
  H       1.546418     -4.494890     -0.117990
  H      -0.794177     -5.155595     -0.687689
  H      -2.626604     -3.585574     -0.250180
  H      -1.967511     -0.237499      1.108610
  B       0.423407     -0.259248      1.712241
  N      -2.466734     -1.100716      0.806463
  C      -3.334111     -1.448048      2.055164
  C      -3.206193     -0.605148     -0.471220
  C      -4.280961     -0.263016      2.306580
  C      -2.380374     -1.589029      3.243040
  C      -4.123136     -2.753605      1.929787
  C      -4.120019      0.549148     -0.028683
  C      -4.001292     -1.686727     -1.212866
  C      -2.153324     -0.059346     -1.436410
  H      -4.938785     -0.545139      3.135401
  H      -3.687281      0.592595      2.647843
  C      -5.085084      0.159867      1.083418
  H      -1.751707     -2.477725      3.155343
  H      -1.719281     -0.727842      3.348336
  H      -2.981944     -1.678960      4.151950
  H      -3.483328     -3.596322      1.667597
  H      -4.541628     -2.964739      2.917550
  H      -4.961319     -2.704343      1.235007
  H      -4.656411      0.900725     -0.916101
  H      -3.491322      1.382977      0.311677
  H      -4.623471     -1.173504     -1.951455
  H      -3.344183     -2.362700     -1.760869
  H      -4.666657     -2.276078     -0.585601
  H      -1.629957      0.797150     -1.009519
  H      -1.425641     -0.824639     -1.715548
  H      -2.666116      0.272253     -2.343825
  H      -5.723981      1.010482      1.340221
  H      -5.761251     -0.639897      0.756683
  H       1.620287     -0.126910      1.498593
  C      -0.331875      1.118582      1.328184
  C      -1.262162      1.899009      2.006445
  C      -1.520624      3.082740      1.257281
  H      -1.657896      1.663685      2.987666
  H      -2.174181      3.904139      1.518704
  H       0.276840     -0.464530      2.909027
  C      -0.737722      3.006560      0.132270
  H      -0.611546      3.696402     -0.691659
  N      -0.035735      1.828101      0.177395
  C       0.974854      1.439771     -0.784142
  H       0.782959      1.944802     -1.734367
  H       1.976974      1.701107     -0.431817
  H       0.941599      0.359914     -0.941499
54
Coordinates from ORCA-job input E -914.942137866081
  C      -1.343036     -2.057085      0.567469
  C      -0.046094     -1.628759      0.895296
  C       0.961135     -2.570853      0.602797
  C       0.712176     -3.823694      0.063045
  C      -0.595537     -4.208611     -0.219478
  C      -1.626825     -3.317991      0.034545
  H       1.984439     -2.284896      0.829888
  H       1.535522     -4.504586     -0.135803
  H      -0.814748     -5.187442     -0.634879
  H      -2.643679     -3.615457     -0.184594
  H      -1.974865     -0.244326      1.101828
  B       0.440450     -0.260310      1.681035
  N      -2.472288     -1.110727      0.806165
  C      -3.339363     -1.445665      2.056308
  C      -3.208553     -0.626046     -0.477787
  C      -4.269071     -0.246384      2.303132
  C      -2.382535     -1.598134      3.240413
  C      -4.146549     -2.740440      1.937847
  C      -4.123059      0.533116     -0.049881
  C      -3.999002     -1.711092     -1.217056
  C      -2.148106     -0.088823     -1.438926
  H      -4.924603     -0.509861      3.139787
  H      -3.662019      0.605048      2.630399
  C      -5.077796      0.172692      1.081013
  H      -1.776795     -2.503017      3.155876
  H      -1.698930     -0.753216      3.333674
  H      -2.979779     -1.665903      4.154077
  H      -3.513264     -3.599828      1.716927
  H      -4.599230     -2.918149      2.917258
  H      -4.961654     -2.695192      1.216403
  H      -4.670335      0.863927     -0.938683
  H      -3.492319      1.374850      0.264154
  H      -4.568245     -1.206287     -2.002527
  H      -3.338226     -2.425092     -1.709200
  H      -4.712116     -2.257053     -0.602829
  H      -1.605301      0.749178     -1.000954
  H      -1.436886     -0.864467     -1.731555
  H      -2.654837      0.268723     -2.339759
  H      -5.694158      1.041507      1.331902
  H      -5.773512     -0.618383      0.775030
  H       1.636498     -0.137944      1.457165
  C      -0.310806      1.126920      1.321338
  C      -1.257927      1.875432      2.011713
  C      -1.538545      3.067649      1.284573
  H      -1.645376      1.617407      2.990442
  H      -2.218928      3.863346      1.558019
  H       0.302413     -0.471752      2.878408
  C      -0.749902      3.029538      0.161338
  H      -0.636631      3.736689     -0.649575
  N      -0.023521      1.864481      0.186649
  C       0.999843      1.516062     -0.776902
  H       0.826499      2.068329     -1.703935
  H       1.996884      1.755546     -0.395939
  H       0.965794      0.445078     -0.986591
54
Coordinates from ORCA-job input E -914.942189579685
  C      -1.340436     -2.056053      0.566887
  C      -0.044392     -1.626733      0.896877
  C       0.964480     -2.566781      0.603467
  C       0.718046     -3.818977      0.061060
  C      -0.588989     -4.205447     -0.222861
  C      -1.621806     -3.316802      0.032173
  H       1.987082     -2.279779      0.832357
  H       1.542639     -4.498160     -0.138478
  H      -0.806791     -5.184003     -0.639648
  H      -2.637998     -3.616304     -0.187325
  H      -1.973309     -0.244284      1.103046
  B       0.439810     -0.259310      1.685924
  N      -2.470458     -1.110632      0.807025
  C      -3.336376     -1.446811      2.057205
  C      -3.208235     -0.622720     -0.475483
  C      -4.264869     -0.247081      2.307401
  C      -2.380165     -1.600437      3.241873
  C      -4.143172     -2.741749      1.935657
  C      -4.118053      0.539086     -0.044806
  C      -4.005462     -1.702668     -1.213859
  C      -2.147637     -0.088991     -1.438911
  H      -4.921584     -0.513288      3.142267
  H      -3.656802      0.601700      2.639121
  C      -5.072295      0.180426      1.087485
  H      -1.768103     -2.500564      3.153458
  H      -1.702964     -0.751077      3.341842
  H      -2.978787     -1.677573      4.153934
  H      -3.507915     -3.601087      1.720085
  H      -4.603127     -2.918301      2.911820
  H      -4.952019     -2.697709      1.207309
  H      -4.666985      0.871075     -0.932195
  H      -3.484797      1.379358      0.268246
  H      -4.543870     -1.198356     -2.021090
  H      -3.351271     -2.440096     -1.679025
  H      -4.746063     -2.219882     -0.607157
  H      -1.597400      0.743168     -0.998530
  H      -1.443402     -0.868378     -1.738022
  H      -2.654906      0.276850     -2.336038
  H      -5.681978      1.052686      1.342720
  H      -5.773400     -0.605342      0.780370
  H       1.635325     -0.133144      1.461822
  C      -0.315946      1.123972      1.323312
  C      -1.269428      1.872212      2.005092
  C      -1.554826      3.057644      1.268885
  H      -1.658550      1.618208      2.984231
  H      -2.240796      3.850891      1.534785
  H       0.301693     -0.472619      2.882947
  C      -0.762810      3.015947      0.148286
  H      -0.649107      3.719233     -0.665894
  N      -0.029165      1.855770      0.184357
  C       0.999996      1.507209     -0.773202
  H       0.854101      2.090068     -1.685854
  H       1.996245      1.709829     -0.370033
  H       0.943730      0.443857     -1.015853
54
Coordinates from ORCA-job input E -914.942207192280
  C      -1.340725     -2.056073      0.566292
  C      -0.044991     -1.625259      0.895031
  C       0.965084     -2.563523      0.599950
  C       0.719901     -3.815991      0.057662
  C      -0.587055     -4.204645     -0.223853
  C      -1.620898     -3.317622      0.032684
  H       1.987510     -2.274783      0.827350
  H       1.545295     -4.493735     -0.143435
  H      -0.804138     -5.183718     -0.639780
  H      -2.636918     -3.619567     -0.184034
  H      -1.973446     -0.244374      1.102685
  B       0.437128     -0.258174      1.685546
  N      -2.470926     -1.110889      0.807573
  C      -3.335603     -1.447188      2.058109
  C      -3.209744     -0.622893     -0.474771
  C      -4.266267     -0.248938      2.307646
  C      -2.379652     -1.596755      3.243494
  C      -4.138651     -2.744413      1.936820
  C      -4.120645      0.538033     -0.044231
  C      -4.008409     -1.701752     -1.212957
  C      -2.148484     -0.089149     -1.437400
  H      -4.922283     -0.515774      3.142842
  H      -3.659464      0.600958      2.638800
  C      -5.074449      0.176800      1.087841
  H      -1.760495     -2.491845      3.153850
  H      -1.709387     -0.742241      3.346394
  H      -2.978854     -1.680521      4.154605
  H      -3.498838     -3.603286      1.733064
  H      -4.608157     -2.916209      2.909255
  H      -4.939318     -2.707296      1.199196
  H      -4.670449      0.868551     -0.931651
  H      -3.489196      1.379592      0.268970
  H      -4.531272     -1.200216     -2.032098
  H      -3.357340     -2.451343     -1.662290
  H      -4.763235     -2.203027     -0.610126
  H      -1.589605      0.734218     -0.991019
  H      -1.452206     -0.871740     -1.746644
  H      -2.656204      0.289873     -2.328759
  H      -5.687261      1.046883      1.343065
  H      -5.772787     -0.611311      0.780424
  H       1.632300     -0.129708      1.460782
  C      -0.319686      1.124307      1.322587
  C      -1.271503      1.875686      2.003051
  C      -1.552241      3.061862      1.266076
  H      -1.661856      1.623172      2.982092
  H      -2.235428      3.857987      1.530634
  H       0.300074     -0.473093      2.882322
  C      -0.759366      3.017031      0.146237
  H      -0.642662      3.719756     -0.668021
  N      -0.029195      1.854790      0.183499
  C       1.000804      1.501724     -0.771526
  H       0.886603      2.117890     -1.666438
  H       1.996879      1.657130     -0.348044
  H       0.914414      0.448860     -1.050286
54
Coordinates from ORCA-job input E -914.942211689529
  C      -1.340427     -2.055325      0.566511
  C      -0.044863     -1.624412      0.895746
  C       0.965410     -2.562485      0.600822
  C       0.720491     -3.814762      0.058001
  C      -0.586282     -4.203333     -0.224469
  C      -1.620324     -3.316552      0.031981
  H       1.987754     -2.273670      0.828489
  H       1.546012     -4.492387     -0.142968
  H      -0.803002     -5.182168     -0.641139
  H      -2.636246     -3.618308     -0.185535
  H      -1.973717     -0.244053      1.103197
  B       0.436338     -0.256658      1.685670
  N      -2.470903     -1.110643      0.808097
  C      -3.335632     -1.447545      2.058375
  C      -3.209928     -0.622825     -0.474193
  C      -4.267485     -0.250142      2.307706
  C      -2.379843     -1.596130      3.243913
  C      -4.137363     -2.745569      1.936436
  C      -4.120370      0.538289     -0.043271
  C      -4.009885     -1.701891     -1.211274
  C      -2.148582     -0.089893     -1.437145
  H      -4.923835     -0.517829      3.142372
  H      -3.661618      0.600159      2.639590
  C      -5.075094      0.175340      1.087450
  H      -1.759291     -2.490240      3.153962
  H      -1.710857     -0.740649      3.347062
  H      -2.979098     -1.681074      4.154866
  H      -3.496359     -3.603665      1.732951
  H      -4.607306     -2.918334      2.908481
  H      -4.937394     -2.709038      1.198015
  H      -4.669184      0.870012     -0.930864
  H      -3.488769      1.379224      0.271495
  H      -4.540568     -1.199710     -2.025044
  H      -3.359432     -2.447843     -1.667493
  H      -4.758849     -2.207748     -0.604948
  H      -1.588357      0.732621     -0.990838
  H      -1.453345     -0.873307     -1.746725
  H      -2.656064      0.290320     -2.328135
  H      -5.689934      1.044034      1.342505
  H      -5.771872     -0.613717      0.778776
  H       1.631569     -0.128125      1.460790
  C      -0.320143      1.125675      1.321908
  C      -1.271985      1.877790      2.001521
  C      -1.551757      3.063651      1.263618
  H      -1.663225      1.626048      2.980402
  H      -2.233817      3.860944      1.527606
  H       0.299435     -0.471008      2.882527
  C      -0.757782      3.018212      0.144581
  H      -0.640347      3.720450     -0.669984
  N      -0.027943      1.855875      0.183103
  C       1.000834      1.498762     -0.771638
  H       0.905526      2.132349     -1.656491
  H       1.996266      1.626920     -0.338060
  H       0.896146      0.452419     -1.069249
54
Coordinates from ORCA-job input E -914.942213327190
  C      -1.340932     -2.055627      0.567236
  C      -0.045085     -1.624481      0.895172
  C       0.964876     -2.562768      0.599916
  C       0.719434     -3.815381      0.058081
  C      -0.587557     -4.204142     -0.222979
  C      -1.621345     -3.317152      0.033744
  H       1.987435     -2.273902      0.826546
  H       1.544770     -4.493147     -0.143170
  H      -0.804597     -5.183250     -0.638850
  H      -2.637506     -3.618887     -0.182699
  H      -1.974321     -0.244425      1.104024
  B       0.436803     -0.256457      1.684334
  N      -2.471390     -1.110976      0.808667
  C      -3.336436     -1.448109      2.058679
  C      -3.209729     -0.622954     -0.473885
  C      -4.268208     -0.250661      2.307941
  C      -2.380560     -1.597313      3.244063
  C      -4.138451     -2.745915      1.936708
  C      -4.120955      0.537575     -0.043010
  C      -4.007947     -1.702194     -1.212360
  C      -2.147754     -0.089041     -1.435629
  H      -4.924569     -0.518131      3.142666
  H      -3.662316      0.599710      2.639685
  C      -5.075806      0.174501      1.087504
  H      -1.761405     -2.492436      3.154338
  H      -1.710130     -0.742861      3.346379
  H      -2.979564     -1.680842      4.155301
  H      -3.497701     -3.604252      1.733537
  H      -4.608538     -2.918248      2.908774
  H      -4.938506     -2.709482      1.198355
  H      -4.669472      0.869583     -0.930670
  H      -3.489492      1.378490      0.272059
  H      -4.537187     -1.199477     -2.026716
  H      -3.356282     -2.447547     -1.667916
  H      -4.757766     -2.208756     -0.607702
  H      -1.590350      0.735399     -0.989487
  H      -1.449915     -0.871240     -1.742396
  H      -2.654071      0.288554     -2.328380
  H      -5.690734      1.043199      1.342336
  H      -5.772607     -0.614558      0.778914
  H       1.632312     -0.129259      1.460149
  C      -0.318441      1.126703      1.320733
  C      -1.270791      1.877771      2.000851
  C      -1.550847      3.064191      1.263966
  H      -1.662049      1.625195      2.979510
  H      -2.233082      3.861085      1.528734
  H       0.299043     -0.470234      2.881226
  C      -0.756452      3.020219      0.145148
  H      -0.639224      3.723205     -0.668798
  N      -0.025998      1.858225      0.182915
  C       1.000965      1.500790     -0.773626
  H       0.903352      2.132433     -1.659709
  H       1.997065      1.631693     -0.342535
  H       0.896716      0.453639     -1.068613
54
Coordinates from ORCA-job input E -914.942213713361
  C      -1.340925     -2.055081      0.567442
  C      -0.045141     -1.624032      0.895805
  C       0.964910     -2.562123      0.600245
  C       0.719640     -3.814475      0.057707
  C      -0.587277     -4.203134     -0.223812
  C      -1.621153     -3.316317      0.033192
  H       1.987406     -2.273308      0.827217
  H       1.545051     -4.492089     -0.143746
  H      -0.804206     -5.182017     -0.640266
  H      -2.637233     -3.617944     -0.183740
  H      -1.974704     -0.244066      1.104694
  B       0.436589     -0.256249      1.685501
  N      -2.471557     -1.110656      0.809079
  C      -3.336602     -1.448388      2.059028
  C      -3.210035     -0.622539     -0.473353
  C      -4.268519     -0.251162      2.308660
  C      -2.380792     -1.597929      3.244428
  C      -4.138536     -2.746214      1.936660
  C      -4.122099      0.537257     -0.042245
  C      -4.007123     -1.702089     -1.212574
  C      -2.148445     -0.087267     -1.434731
  H      -4.924596     -0.518808      3.143551
  H      -3.662700      0.599302      2.640333
  C      -5.076541      0.173831      1.088452
  H      -1.761598     -2.492997      3.154491
  H      -1.710414     -0.743484      3.347106
  H      -2.979877     -1.681785      4.155585
  H      -3.497867     -3.604358      1.732443
  H      -4.607951     -2.919250      2.908926
  H      -4.939175     -2.709292      1.198954
  H      -4.670937      0.868962     -0.929813
  H      -3.491080      1.378539      0.272659
  H      -4.537666     -1.199222     -2.025973
  H      -3.354441     -2.445780     -1.669440
  H      -4.755626     -2.210793     -0.608104
  H      -1.591834      0.737536     -0.988291
  H      -1.449952     -0.868715     -1.741934
  H      -2.655189      0.290139     -2.327327
  H      -5.691477      1.042471      1.343469
  H      -5.773294     -0.615344      0.780054
  H       1.632430     -0.129738      1.462690
  C      -0.317691      1.127051      1.320645
  C      -1.270772      1.878408      1.999444
  C      -1.550517      3.064195      1.261419
  H      -1.662667      1.626539      2.978040
  H      -2.233256      3.861031      1.525050
  H       0.297371     -0.469639      2.882297
  C      -0.755320      3.019482      0.143184
  H      -0.637644      3.721813     -0.671258
  N      -0.024555      1.857706      0.182515
  C       1.002107      1.498891     -0.773842
  H       0.906284      2.131822     -1.659175
  H       1.998282      1.627032     -0.342100
  H       0.895614      0.452335     -1.070178
