74
Coordinates from ORCA-job input E -1325.546729499222
  C          -2.27507259048997     -1.37493224165977      0.75913328994785
  C          -1.07485816770148     -0.67348287916323      1.00708159284329
  C           0.12596089046055     -1.39910796652863      0.98539766397998
  C           0.15990375365893     -2.77022867365350      0.75575385445734
  C          -1.02739610109757     -3.45551874429940      0.53068786495074
  C          -2.22922476721455     -2.75644618108577      0.52816583296026
  H           1.06269638200745     -0.87048229766473      1.15063505195467
  H           1.10981774424414     -3.29807394298489      0.74792148756063
  H          -1.02249990300014     -4.52690541609563      0.34926906955576
  H          -3.15398844791399     -3.29124938807551      0.33899105315076
  N          -3.52367392287518     -0.66627096748724      0.72265109258633
  C          -4.41760603275374     -0.81683093355819      1.89518794225311
  C          -4.07689354739733     -0.38524177010046     -0.62642648206926
  C          -5.40490801611970      0.36551950728796      1.91146488921624
  C          -3.58190718372042     -0.72115951410457      3.17902862892960
  C          -5.19986952007060     -2.14907427085601      1.96588024818569
  C          -5.06786908785302      0.78767794974469     -0.50829863741986
  C          -4.76981876989450     -1.58229228628796     -1.31814936980988
  C          -2.94264274086709      0.07025537111584     -1.55853788419295
  H          -6.12887913304934      0.21156355150060      2.72076966640564
  H          -4.83666453180140      1.27343456518157      2.15549506963743
  C          -6.11233644714319      0.58095238366851      0.58055467258742
  H          -2.86806474432783     -1.54398724925091      3.26942562851594
  C           2.29673364844384      4.91206578610603      2.02244337312558
  H           1.74520276129475      5.70080666728193      1.50317457938411
  H           2.01906715174477      4.94240749429301      3.07770239094006
  H           3.36587335085313      5.13074493432717      1.93247045785309
  C           2.14875646444421      3.60712834639509     -0.11331378367276
  H           1.43302452795427      4.31996338395533     -0.53120792411460
  H           3.15739338501378      3.92553328360865     -0.39308413849971
  H           1.95733222139824      2.62850657448665     -0.56316503127772
  C           4.03424633848772      1.98264363610907      1.43644530496350
  H           4.74355275849960      2.81154378715784      1.53122311054114
  H           4.45833960337569      1.11287909548533      1.94549756577914
  H           3.92268275385760      1.73287022687037      0.37989149214134
  C           2.83500288808235      2.48938338843345      3.57982338051803
  H           3.13079108907799      1.52470463038948      4.00059259578624
  H          -3.02398265187989      0.21687445331862      3.20590270151401
  H          -4.24385315670370     -0.75123510739581      4.05067147492971
  H          -5.88942403328237     -2.28662022610545      1.13128196314248
  H          -4.51741598719690     -3.00253674277777      1.98741570913012
  H          -5.79123035448156     -2.18173883110461      2.88756487579312
  H          -5.54453315102544      0.94741649235452     -1.48285504489079
  H          -4.49180550426444      1.69346181629204     -0.27652097908059
  H          -5.08084795235810     -1.29432159207332     -2.32828933670720
  H          -4.08386674677201     -2.42732465881049     -1.41796111078199
  H          -5.66009599503798     -1.92638088330246     -0.78884416717512
  H          -2.39635776659972      0.91082406508754     -1.12522556518310
  H          -2.23064579550462     -0.73382332983624     -1.76199823958855
  H          -3.36954354274681      0.39245894246722     -2.51391490788722
  H          -6.77307477409498      1.45337872440273      0.64083274393151
  H          -6.75672609968076     -0.27457719000531      0.34170035018443
  B          -1.06134804375084      0.89648280223767      1.30436119999665
  H          -1.97861047254656      1.58218511908721      0.95734519393009
  H          -0.09286650229820      1.37870274635541      0.60892419813229
  C           1.96681456786625      3.56054897869637      1.40517934913415
  C           2.69420155041087      2.34079360669555      2.06222633221570
  O           0.58719979253964      3.26495656054421      1.67450769548740
  O           1.77237304214276      1.27222892651477      1.80616535055671
  B           0.49059943618058      1.86170019460108      1.77486798954914
  H           3.59415517889009      3.23070767460830      3.84682686149430
  H           1.88446718345851      2.77978547205169      4.03741326293792
  C          -0.67579732327089      1.32443923931347      2.88583331790222
  C          -0.22842729960315      0.43576800864691      3.88508034055610
  C          -0.71561972655363      0.85080796795014      5.11734498021151
  H           0.40658199368371     -0.41637746583386      3.68522008425259
  C          -1.47215110535702      1.99648209151527      4.87168866821030
  H          -0.55474946304540      0.39347915464390      6.08269287507090
  H          -2.02422962330789      2.62091358840383      5.56226110409617
  N          -1.45472112174999      2.28002335396610      3.56454380423308
  C          -2.16057649967234      3.39005455392659      2.94919941503363
  H          -1.46531226087273      3.96555129247443      2.33747432928070
  H          -2.97311023257394      3.01661099400328      2.32160145832582
  H          -2.57095899654842      4.02082183654426      3.73891304240759
