74
Coordinates from ORCA-job input_IRC_B E -1325.535921689639
  C      -2.280099     -1.357705      0.882131
  C      -1.185322     -0.553838      1.285512
  C       0.074741     -1.172734      1.346535
  C       0.256771     -2.526780      1.084064
  C      -0.832001     -3.311151      0.718133
  C      -2.085528     -2.720596      0.607576
  H       0.939160     -0.570378      1.614188
  H       1.249579     -2.964731      1.156118
  H      -0.707391     -4.369840      0.501945
  H      -2.934919     -3.318621      0.289543
  N      -3.573774     -0.763585      0.705827
  C      -4.614491     -1.052442      1.723065
  C      -3.930710     -0.367837     -0.678508
  C      -5.632929      0.103840      1.705364
  C      -3.965739     -1.067067      3.121088
  C      -5.357467     -2.404978      1.542831
  C      -4.997675      0.741870     -0.612818
  C      -4.427366     -1.538298     -1.563416
  C      -2.699195      0.234849     -1.381702
  H      -6.453187     -0.136991      2.395079
  H      -5.129269      1.003930      2.091080
  C      -6.166487      0.403073      0.306376
  H      -3.266429     -1.899362      3.234063
  C       2.860370      4.878569      1.668607
  H       2.237402      5.736953      1.393767
  H       3.143714      4.991702      2.727618
  H       3.776667      4.900528      1.046368
  C       1.534200      3.561880     -0.028762
  H       0.836767      4.397690     -0.150074
  H       2.349901      3.667651     -0.763498
  H       0.979845      2.634402     -0.238637
  C       3.550874      1.570142      0.595701
  H       4.302822      2.231421      0.127223
  H       4.069659      0.676469      0.950244
  H       2.819807      1.259745     -0.169703
  C       3.871199      2.465044      2.937293
  H       4.199007      1.476440      3.270027
  H      -3.421248     -0.132092      3.308559
  H      -4.750506     -1.178324      3.883772
  H      -5.935820     -2.443917      0.612577
  H      -4.657960     -3.247044      1.543040
  H      -6.054105     -2.560696      2.378155
  H      -5.347628      0.955118     -1.631277
  H      -4.511448      1.653403     -0.236355
  H      -4.576199     -1.198912     -2.596816
  H      -3.682786     -2.339364     -1.581150
  H      -5.375058     -1.959935     -1.215125
  H      -2.265674      1.048420     -0.788737
  H      -1.923404     -0.515214     -1.557190
  H      -3.007980      0.639447     -2.352783
  H      -6.869695      1.242674      0.342566
  H      -6.730200     -0.456549     -0.083583
  B      -1.382231      1.015208      1.540915
  H      -2.527086      1.389999      1.851103
  H      -0.775661      1.770746      0.796126
  C       2.082025      3.583030      1.409367
  C       2.863625      2.271708      1.781985
  O       0.930102      3.532840      2.309379
  O       1.797536      1.414710      2.278560
  B       0.748864      2.218232      2.666000
  H       4.767368      3.031893      2.611933
  H       3.420340      2.990640      3.808286
  C      -0.490270      1.632756      3.369587
  C      -0.507010      0.445757      4.168283
  C      -1.529623      0.520497      5.133099
  H       0.165730     -0.382961      4.002662
  C      -2.126142      1.770088      4.954007
  H      -1.851285     -0.241389      5.860810
  H      -2.991624      2.195445      5.471544
  N      -1.492008      2.445635      3.947608
  C      -1.891204      3.737836      3.411011
  H      -1.022024      4.405924      3.367031
  H      -2.290415      3.601268      2.394348
  H      -2.665331      4.160778      4.058941
74
Coordinates from ORCA-job input_IRC_B E -1325.539966790893
  C      -2.279623     -1.357712      0.882664
  C      -1.186667     -0.553723      1.282337
  C       0.073913     -1.172322      1.346597
  C       0.256617     -2.526339      1.084424
  C      -0.832344     -3.310542      0.718151
  C      -2.085496     -2.719550      0.608229
  H       0.939309     -0.570481      1.613774
  H       1.249240     -2.964650      1.156094
  H      -0.707260     -4.369072      0.502141
  H      -2.934137     -3.318261      0.290147
  N      -3.573388     -0.763347      0.706387
  C      -4.613426     -1.053316      1.722953
  C      -3.930965     -0.367681     -0.677978
  C      -5.633157      0.103639      1.704435
  C      -3.967429     -1.065844      3.119253
  C      -5.356884     -2.402885      1.542669
  C      -4.997894      0.741634     -0.612188
  C      -4.427360     -1.537260     -1.562777
  C      -2.700930      0.234419     -1.380833
  H      -6.452594     -0.136297      2.394420
  H      -5.130441      1.001972      2.090461
  C      -6.165880      0.402462      0.306971
  H      -3.266114     -1.898755      3.234344
  C       2.860193      4.875952      1.667745
  H       2.239152      5.735468      1.393802
  H       3.141679      4.989535      2.720447
  H       3.769860      4.900799      1.051542
  C       1.535762      3.561791     -0.025967
  H       0.838558      4.396621     -0.150479
  H       2.344695      3.667574     -0.759669
  H       0.983349      2.638499     -0.236692
  C       3.547321      1.574032      0.597348
  H       4.297015      2.228305      0.130717
  H       4.068544      0.676891      0.950587
  H       2.824343      1.262422     -0.163796
  C       3.869635      2.468350      2.936343
  H       4.198592      1.478051      3.270622
  H      -3.423628     -0.136471      3.306958
  H      -4.748408     -1.177722      3.881707
  H      -5.934851     -2.444444      0.615789
  H      -4.658355     -3.245361      1.543099
  H      -6.053299     -2.560148      2.376022
  H      -5.347578      0.955224     -1.630435
  H      -4.512067      1.652456     -0.236785
  H      -4.575941     -1.199112     -2.595273
  H      -3.683457     -2.339408     -1.581653
  H      -5.373555     -1.959247     -1.215879
  H      -2.266931      1.047245     -0.790762
  H      -1.923358     -0.514555     -1.557168
  H      -3.007688      0.639136     -2.351869
  H      -6.869904      1.242432      0.342525
  H      -6.729719     -0.455257     -0.083173
  B      -1.397236      1.014745      1.540558
  H      -2.509374      1.386659      1.847630
  H      -0.777302      1.767490      0.803617
  C       2.080980      3.583261      1.410341
  C       2.864044      2.271130      1.783887
  O       0.936858      3.534497      2.306798
  O       1.806389      1.417632      2.279502
  B       0.753039      2.216260      2.654017
  H       4.758615      3.027649      2.613981
  H       3.423211      2.984732      3.798014
  C      -0.499933      1.627809      3.391074
  C      -0.511428      0.446175      4.170250
  C      -1.525626      0.522924      5.126317
  H       0.164901     -0.382499      4.003349
  C      -2.122042      1.776298      4.945246
  H      -1.844459     -0.230924      5.849467
  H      -2.982374      2.194816      5.464752
  N      -1.498859      2.441693      3.955542
  C      -1.891549      3.735860      3.412214
  H      -1.026060      4.403050      3.367575
  H      -2.289016      3.601696      2.399098
  H      -2.663358      4.160821      4.056932
74
Coordinates from ORCA-job input_IRC_B E -1325.541522605050
  C      -2.280573     -1.358231      0.882291
  C      -1.188960     -0.553913      1.277671
  C       0.072071     -1.170070      1.345596
  C       0.255755     -2.524252      1.085345
  C      -0.832478     -3.309019      0.718572
  C      -2.085491     -2.719285      0.609284
  H       0.938952     -0.570316      1.612788
  H       1.248171     -2.963989      1.156309
  H      -0.707098     -4.367147      0.502569
  H      -2.932978     -3.317764      0.291634
  N      -3.572747     -0.761817      0.707199
  C      -4.613286     -1.053267      1.721277
  C      -3.931541     -0.368007     -0.676383
  C      -5.633022      0.101731      1.702995
  C      -3.968861     -1.068473      3.114827
  C      -5.354431     -2.400123      1.542935
  C      -4.998462      0.740628     -0.611164
  C      -4.426231     -1.536143     -1.561053
  C      -2.703376      0.232524     -1.380458
  H      -6.451980     -0.135334      2.393238
  H      -5.132076      0.999165      2.089592
  C      -6.165586      0.402665      0.307395
  H      -3.266021     -1.897116      3.234365
  C       2.853719      4.871998      1.665286
  H       2.240662      5.733536      1.392884
  H       3.138351      4.984453      2.712550
  H       3.762924      4.900767      1.056737
  C       1.537016      3.563830     -0.018962
  H       0.841329      4.396098     -0.150242
  H       2.338831      3.668228     -0.755013
  H       0.988482      2.642651     -0.232215
  C       3.544941      1.576259      0.606677
  H       4.288889      2.227058      0.136241
  H       4.064811      0.679427      0.952283
  H       2.827115      1.267015     -0.155224
  C       3.866063      2.463287      2.929654
  H       4.197490      1.480679      3.271447
  H      -3.426306     -0.141138      3.303725
  H      -4.746634     -1.176713      3.878708
  H      -5.934286     -2.445211      0.619623
  H      -4.657958     -3.242177      1.543421
  H      -6.052301     -2.558373      2.373110
  H      -5.347734      0.955301     -1.628709
  H      -4.512950      1.651395     -0.237077
  H      -4.575382     -1.198476     -2.592937
  H      -3.684707     -2.339366     -1.582637
  H      -5.371989     -1.958257     -1.216628
  H      -2.269224      1.046504     -0.794030
  H      -1.923829     -0.513201     -1.556806
  H      -3.008015      0.638388     -2.350599
  H      -6.869953      1.241625      0.342692
  H      -6.729394     -0.453715     -0.082846
  B      -1.403863      1.002885      1.530869
  H      -2.492514      1.386330      1.847134
  H      -0.780593      1.761174      0.821721
  C       2.083416      3.582553      1.410815
  C       2.866712      2.274159      1.784659
  O       0.942651      3.530419      2.305338
  O       1.814132      1.418757      2.283778
  B       0.747959      2.209801      2.642311
  H       4.748873      3.024969      2.614076
  H       3.422141      2.978685      3.785761
  C      -0.489856      1.634008      3.407195
  C      -0.511780      0.448137      4.169425
  C      -1.526036      0.531357      5.118285
  H       0.163269     -0.382644      4.005203
  C      -2.120859      1.776838      4.941832
  H      -1.833938     -0.216435      5.833337
  H      -2.971593      2.198460      5.455284
  N      -1.497647      2.441269      3.955913
  C      -1.892671      3.731126      3.416985
  H      -1.030823      4.397523      3.369598
  H      -2.287794      3.600610      2.405653
  H      -2.662425      4.162624      4.055378
74
Coordinates from ORCA-job input_IRC_B E -1325.541767290270
  C      -2.281400     -1.359095      0.881715
  C      -1.188907     -0.556313      1.276138
  C       0.072590     -1.170221      1.344709
  C       0.255769     -2.523951      1.085498
  C      -0.832501     -3.308503      0.718921
  C      -2.085952     -2.719721      0.609416
  H       0.938459     -0.569627      1.612349
  H       1.247691     -2.963357      1.156597
  H      -0.706925     -4.366513      0.502750
  H      -2.933198     -3.318264      0.292042
  N      -3.572741     -0.761207      0.707124
  C      -4.613462     -1.053330      1.720848
  C      -3.931620     -0.367990     -0.676359
  C      -5.633217      0.101629      1.702830
  C      -3.968779     -1.068830      3.114367
  C      -5.354344     -2.400274      1.542522
  C      -4.998505      0.740578     -0.611040
  C      -4.426249     -1.536315     -1.560817
  C      -2.703604      0.232456     -1.380631
  H      -6.452154     -0.135550      2.393043
  H      -5.132060      0.998913      2.089541
  C      -6.165798      0.402575      0.307328
  H      -3.265700     -1.897613      3.233921
  C       2.853106      4.872106      1.665318
  H       2.239205      5.733713      1.392034
  H       3.137323      4.982951      2.713208
  H       3.762776      4.900341      1.056281
  C       1.536897      3.563994     -0.018707
  H       0.841429      4.396964     -0.149100
  H       2.339196      3.668818     -0.754732
  H       0.988854      2.642104     -0.230656
  C       3.544780      1.576044      0.607252
  H       4.288363      2.228609      0.137556
  H       4.064213      0.679167      0.954379
  H       2.825492      1.267861     -0.153670
  C       3.866085      2.462728      2.929603
  H       4.197330      1.479350      3.271312
  H      -3.426318     -0.141177      3.302596
  H      -4.747043     -1.176778      3.878007
  H      -5.934610     -2.445395      0.619356
  H      -4.656974     -3.241723      1.543648
  H      -6.052073     -2.557512      2.373097
  H      -5.347925      0.955198     -1.628469
  H      -4.513034      1.651362     -0.236854
  H      -4.575130     -1.197802     -2.592418
  H      -3.684649     -2.339582     -1.582810
  H      -5.372185     -1.958201     -1.216420
  H      -2.269835      1.047028     -0.794607
  H      -1.923906     -0.513277     -1.556671
  H      -3.008720      0.637998     -2.350769
  H      -6.870028      1.241656      0.342912
  H      -6.729695     -0.453801     -0.083079
  B      -1.404273      0.998953      1.527905
  H      -2.491933      1.387025      1.848994
  H      -0.778434      1.761126      0.825260
  C       2.082566      3.581867      1.411373
  C       2.865611      2.272813      1.785048
  O       0.941568      3.529506      2.304730
  O       1.813825      1.417020      2.283907
  B       0.749309      2.209537      2.642222
  H       4.748692      3.025724      2.612465
  H       3.419450      2.978389      3.784687
  C      -0.484987      1.636569      3.408327
  C      -0.508964      0.450706      4.168333
  C      -1.525276      0.531476      5.116164
  H       0.163416     -0.383032      4.005798
  C      -2.120814      1.778189      4.940365
  H      -1.833160     -0.216654      5.832801
  H      -2.972154      2.201554      5.454378
  N      -1.494015      2.442810      3.955429
  C      -1.892470      3.731422      3.417170
  H      -1.030455      4.397283      3.370324
  H      -2.288429      3.599721      2.406077
  H      -2.662912      4.162695      4.056324
74
Coordinates from ORCA-job input_IRC_B E -1325.541890143076
  C      -2.281808     -1.359658      0.881370
  C      -1.189016     -0.557269      1.275242
  C       0.072759     -1.170276      1.344181
  C       0.255777     -2.523916      1.085520
  C      -0.832592     -3.308343      0.719088
  C      -2.086233     -2.720140      0.609455
  H       0.938191     -0.569177      1.612030
  H       1.247623     -2.963144      1.156786
  H      -0.706799     -4.366214      0.502871
  H      -2.933411     -3.318748      0.292250
  N      -3.572713     -0.760930      0.707100
  C      -4.613554     -1.053386      1.720631
  C      -3.931686     -0.367984     -0.676346
  C      -5.633317      0.101531      1.702745
  C      -3.968751     -1.069028      3.114054
  C      -5.354273     -2.400308      1.542284
  C      -4.998575      0.740552     -0.610982
  C      -4.426257     -1.536378     -1.560681
  C      -2.703764      0.232427     -1.380749
  H      -6.452258     -0.135689      2.392930
  H      -5.132077      0.998755      2.089502
  C      -6.165924      0.402523      0.307298
  H      -3.265596     -1.897837      3.233634
  C       2.852683      4.872035      1.665347
  H       2.238507      5.733561      1.391670
  H       3.136652      4.982175      2.713429
  H       3.762446      4.900091      1.056190
  C       1.536844      3.564068     -0.018527
  H       0.841524      4.397330     -0.148417
  H       2.339288      3.669139     -0.754466
  H       0.989044      2.641887     -0.229834
  C       3.544614      1.575957      0.607658
  H       4.287914      2.229339      0.138435
  H       4.063809      0.679119      0.955474
  H       2.824642      1.268286     -0.152790
  C       3.865953      2.462398      2.929529
  H       4.197216      1.478853      3.271205
  H      -3.426332     -0.141268      3.301937
  H      -4.747203     -1.176822      3.877555
  H      -5.934759     -2.445565      0.619220
  H      -4.656478     -3.241437      1.543768
  H      -6.051895     -2.557036      2.373048
  H      -5.348041      0.955158     -1.628358
  H      -4.513101      1.651327     -0.236720
  H      -4.575003     -1.197426     -2.592120
  H      -3.684654     -2.339683     -1.582905
  H      -5.372270     -1.958166     -1.216316
  H      -2.270211      1.047350     -0.794994
  H      -1.923971     -0.513275     -1.556594
  H      -3.009135      0.637739     -2.350894
  H      -6.870077      1.241665      0.343026
  H      -6.729869     -0.453819     -0.083212
  B      -1.404902      0.997264      1.526180
  H      -2.491194      1.387146      1.850031
  H      -0.777114      1.760899      0.827309
  C       2.082339      3.581601      1.411470
  C       2.865350      2.272295      1.785205
  O       0.941227      3.529183      2.304261
  O       1.813929      1.416227      2.283864
  B       0.749899      2.209256      2.642309
  H       4.748229      3.025952      2.611686
  H       3.418047      2.978093      3.783989
  C      -0.482557      1.638299      3.409415
  C      -0.507088      0.450901      4.168197
  C      -1.525513      0.532365      5.115219
  H       0.163443     -0.382707      4.006131
  C      -2.120245      1.778248      4.939590
  H      -1.832502     -0.216501      5.831975
  H      -2.972033      2.203231      5.453424
  N      -1.492560      2.443938      3.955637
  C      -1.892122      3.731568      3.417217
  H      -1.030319      4.397445      3.370598
  H      -2.288749      3.599296      2.406417
  H      -2.662974      4.162579      4.056812
74
Coordinates from ORCA-job input_IRC_B E -1325.542117359900
  C      -2.282691     -1.361010      0.880540
  C      -1.189398     -0.559246      1.273062
  C       0.073008     -1.170348      1.342890
  C       0.255817     -2.523910      1.085522
  C      -0.832806     -3.308144      0.719450
  C      -2.086966     -2.721265      0.609508
  H       0.937520     -0.568085      1.611152
  H       1.247584     -2.962785      1.157247
  H      -0.706464     -4.365680      0.503175
  H      -2.933971     -3.320142      0.292727
  N      -3.572676     -0.760379      0.707023
  C      -4.613751     -1.053525      1.720100
  C      -3.931852     -0.367974     -0.676313
  C      -5.633548      0.101272      1.702550
  C      -3.968708     -1.069477      3.113259
  C      -5.354095     -2.400343      1.541717
  C      -4.998782      0.740491     -0.610850
  C      -4.426286     -1.536485     -1.560364
  C      -2.704198      0.232376     -1.381051
  H      -6.452503     -0.136043      2.392665
  H      -5.132156      0.998365      2.089403
  C      -6.166235      0.402398      0.307232
  H      -3.265432     -1.898324      3.232904
  C       2.851653      4.871719      1.665413
  H       2.236939      5.732977      1.390944
  H       3.134982      4.980461      2.713861
  H       3.761504      4.899519      1.056124
  C       1.536781      3.564211     -0.018089
  H       0.841751      4.398053     -0.146772
  H       2.339406      3.669871     -0.753807
  H       0.989436      2.641463     -0.228014
  C       3.544161      1.575796      0.608649
  H       4.286774      2.230885      0.140571
  H       4.062814      0.679076      0.957922
  H       2.822732      1.269195     -0.150756
  C       3.865463      2.461661      2.929281
  H       4.196937      1.477901      3.270942
  H      -3.426351     -0.141536      3.300384
  H      -4.747508     -1.176935      3.876457
  H      -5.935054     -2.446045      0.618908
  H      -4.655390     -3.240762      1.544036
  H      -6.051433     -2.555957      2.372895
  H      -5.348323      0.955087     -1.628131
  H      -4.513292      1.651221     -0.236404
  H      -4.574735     -1.196558     -2.591441
  H      -3.684708     -2.339889     -1.583119
  H      -5.372440     -1.958080     -1.216091
  H      -2.271131      1.048152     -0.795988
  H      -1.924143     -0.513209     -1.556416
  H      -3.010131      0.637078     -2.351241
  H      -6.870204      1.241675      0.343282
  H      -6.730288     -0.453825     -0.083521
  B      -1.406540      0.993738      1.522085
  H      -2.489302      1.387210      1.852517
  H      -0.773842      1.760222      0.832032
  C       2.081981      3.581022      1.411562
  C       2.864925      2.271305      1.785488
  O       0.940698      3.528410      2.303137
  O       1.814273      1.414651      2.283703
  B       0.751394      2.208810      2.642527
  H       4.746853      3.026339      2.610029
  H       3.414868      2.977300      3.782369
  C      -0.477236      1.641811      3.413013
  C      -0.503599      0.452302      4.168264
  C      -1.525685      0.533970      5.113087
  H       0.164103     -0.382135      4.006849
  C      -2.119222      1.778916      4.937956
  H      -1.830992     -0.215950      5.829695
  H      -2.971291      2.206948      5.450757
  N      -1.488945      2.446196      3.956382
  C      -1.891338      3.732132      3.417449
  H      -1.030034      4.398241      3.371032
  H      -2.289418      3.598385      2.407297
  H      -2.662785      4.162153      4.057832
