74
Coordinates from ORCA-job input_IRC_F E -1325.535092496831
  C      -2.260559     -1.336699      0.817005
  C      -1.078280     -0.624240      1.119930
  C       0.121091     -1.358504      1.169243
  C       0.170931     -2.736366      0.974798
  C      -1.006389     -3.429897      0.700873
  C      -2.204008     -2.726630      0.616620
  H       1.050158     -0.821248      1.360932
  H       1.121035     -3.263695      1.025008
  H      -0.993829     -4.506388      0.541761
  H      -3.118193     -3.265491      0.386035
  N      -3.513148     -0.645323      0.693959
  C      -4.452539     -0.760324      1.832473
  C      -3.986518     -0.391391     -0.687382
  C      -5.489897      0.376158      1.746916
  C      -3.667279     -0.538937      3.139526
  C      -5.184245     -2.127276      1.958273
  C      -5.032437      0.738448     -0.656744
  C      -4.584536     -1.624404     -1.413010
  C      -2.808917      0.110159     -1.543022
  H      -6.246603      0.218949      2.527781
  H      -4.974741      1.320954      1.977348
  C      -6.133267      0.506253      0.371452
  H      -2.952345     -1.344456      3.334581
  C       2.450712      4.934269      2.011391
  H       1.807058      5.728777      1.620957
  H       2.429574      4.989790      3.112192
  H       3.487981      5.122516      1.668938
  C       1.742024      3.618642     -0.025440
  H       0.983803      4.375146     -0.253520
  H       2.677843      3.885351     -0.546278
  H       1.382111      2.656430     -0.420585
  C       3.844598      1.857644      0.982653
  H       4.595026      2.646437      0.793315
  H       4.368073      0.990131      1.396300
  H       3.384435      1.554063      0.026593
  C       3.407247      2.567236      3.383967
  H       3.817993      1.616784      3.736709
  H      -3.109012      0.404596      3.071941
  H      -4.355660     -0.485160      3.997030
  H      -5.795754     -2.371455      1.080601
  H      -4.463666     -2.939230      2.106652
  H      -5.845691     -2.116296      2.836709
  H      -5.452130      0.855196     -1.664325
  H      -4.512472      1.674729     -0.408393
  H      -4.874411     -1.348760     -2.436344
  H      -3.845300     -2.425386     -1.489008
  H      -5.474448     -2.023321     -0.914911
  H      -2.333636      0.976946     -1.074617
  H      -2.049490     -0.662838     -1.682352
  H      -3.176260      0.403915     -2.534293
  H      -6.841821      1.342340      0.363090
  H      -6.714182     -0.394479      0.125803
  B      -1.021471      0.965100      1.370697
  H      -2.057490      1.597255      1.095073
  H      -0.108775      1.450162      0.672738
  C       1.941671      3.581556      1.500865
  C       2.783547      2.344448      1.985541
  O       0.645994      3.331368      2.109673
  O       1.767600      1.314444      2.133842
  B       0.534556      1.957622      2.248524
  H       4.225582      3.313947      3.365547
  H       2.625618      2.898202      4.103650
  C      -0.698360      1.319176      3.023085
  C      -0.399262      0.305815      4.003347
  C      -1.037483      0.585691      5.217175
  H       0.231878     -0.544093      3.781084
  C      -1.739834      1.784188      4.998821
  H      -1.019619      0.014613      6.159958
  H      -2.363700      2.334271      5.711220
  N      -1.553932      2.218383      3.729310
  C      -2.131732      3.436786      3.181847
  H      -1.329634      4.129274      2.898795
  H      -2.719355      3.188444      2.288182
  H      -2.779111      3.881508      3.941905
74
Coordinates from ORCA-job input_IRC_F E -1325.539681308446
  C      -2.260104     -1.337719      0.817824
  C      -1.075642     -0.625504      1.116711
  C       0.121462     -1.359365      1.168546
  C       0.168873     -2.736239      0.974470
  C      -1.005419     -3.428616      0.701124
  C      -2.202707     -2.726097      0.617261
  H       1.049206     -0.822131      1.360736
  H       1.120166     -3.263019      1.025033
  H      -0.993765     -4.504978      0.541993
  H      -3.117636     -3.264675      0.386415
  N      -3.513710     -0.644927      0.694597
  C      -4.453471     -0.762144      1.834574
  C      -3.987385     -0.391796     -0.688817
  C      -5.490013      0.375976      1.746369
  C      -3.667963     -0.538211      3.138527
  C      -5.183269     -2.125780      1.957932
  C      -5.032956      0.738349     -0.656263
  C      -4.584876     -1.623063     -1.412735
  C      -2.809759      0.109728     -1.542821
  H      -6.245849      0.219520      2.526640
  H      -4.975397      1.319881      1.977248
  C      -6.132593      0.505796      0.371781
  H      -2.953098     -1.343612      3.333937
  C       2.452857      4.932359      2.011050
  H       1.808778      5.728521      1.621423
  H       2.429484      4.988272      3.104796
  H       3.479807      5.121007      1.670766
  C       1.744027      3.618956     -0.023334
  H       0.985477      4.374331     -0.253848
  H       2.672339      3.884172     -0.543301
  H       1.384413      2.660567     -0.417406
  C       3.840206      1.860445      0.984614
  H       4.589647      2.642175      0.793962
  H       4.366616      0.991200      1.396086
  H       3.387703      1.556807      0.033757
  C       3.403173      2.569532      3.381336
  H       3.816654      1.618192      3.736928
  H      -3.112843      0.400058      3.073021
  H      -4.354109     -0.485228      3.993555
  H      -5.794130     -2.370035      1.083146
  H      -4.464527     -2.937830      2.105961
  H      -5.844323     -2.116170      2.834298
  H      -5.451894      0.855427     -1.663406
  H      -4.513073      1.674084     -0.408724
  H      -4.873995     -1.349294     -2.434491
  H      -3.845577     -2.425499     -1.489049
  H      -5.472951     -2.022807     -0.915517
  H      -2.333981      0.976113     -1.075176
  H      -2.049224     -0.662978     -1.682570
  H      -3.176153      0.403704     -2.532919
  H      -6.841864      1.342177      0.363099
  H      -6.713504     -0.393284      0.126146
  B      -1.041116      0.964754      1.358880
  H      -2.043293      1.591836      1.100006
  H      -0.112272      1.451459      0.683701
  C       1.941451      3.581511      1.501924
  C       2.782434      2.343007      1.988023
  O       0.651734      3.334533      2.106198
  O       1.776692      1.319521      2.135470
  B       0.544306      1.955901      2.237754
  H       4.217994      3.308054      3.365035
  H       2.634556      2.895083      4.096571
  C      -0.701271      1.318289      3.049593
  C      -0.402189      0.307929      4.006384
  C      -1.034857      0.587803      5.208697
  H       0.231309     -0.542702      3.782178
  C      -1.738659      1.785549      4.992689
  H      -1.019056      0.022338      6.144247
  H      -2.358984      2.331992      5.701449
  N      -1.555194      2.216294      3.742337
  C      -2.131653      3.435379      3.181768
  H      -1.332793      4.126461      2.900185
  H      -2.717410      3.188866      2.291650
  H      -2.778143      3.881617      3.939985
74
Coordinates from ORCA-job input_IRC_F E -1325.541255667807
  C      -2.260634     -1.338949      0.817900
  C      -1.076316     -0.627259      1.109383
  C       0.121544     -1.359153      1.166090
  C       0.168413     -2.735374      0.974463
  C      -1.005479     -3.427269      0.701204
  C      -2.202267     -2.726182      0.618563
  H       1.049097     -0.823293      1.360516
  H       1.118324     -3.261828      1.025258
  H      -0.993412     -4.502587      0.542366
  H      -3.116257     -3.263021      0.387547
  N      -3.513286     -0.644770      0.695612
  C      -4.454155     -0.762656      1.834599
  C      -3.987960     -0.392137     -0.688157
  C      -5.489558      0.374672      1.745733
  C      -3.670551     -0.542077      3.135608
  C      -5.180862     -2.123423      1.957839
  C      -5.033351      0.737645     -0.655688
  C      -4.583700     -1.622494     -1.411618
  C      -2.810559      0.107965     -1.542035
  H      -6.245587      0.220683      2.525003
  H      -4.976102      1.318098      1.977154
  C      -6.131849      0.506119      0.372253
  H      -2.954042     -1.342888      3.332419
  C       2.448602      4.928968      2.006698
  H       1.811833      5.728015      1.621696
  H       2.429054      4.984484      3.096642
  H       3.472582      5.119034      1.670809
  C       1.744649      3.621152     -0.016581
  H       0.988460      4.373687     -0.253693
  H       2.667614      3.883696     -0.540109
  H       1.388251      2.665190     -0.411064
  C       3.835742      1.862218      0.993937
  H       4.581546      2.638478      0.795362
  H       4.362373      0.993941      1.396972
  H       3.389498      1.561196      0.043487
  C       3.401987      2.564270      3.373371
  H       3.813138      1.620666      3.736371
  H      -3.118190      0.395927      3.074776
  H      -4.354000     -0.485721      3.989217
  H      -5.792052     -2.366841      1.085747
  H      -4.464694     -2.935879      2.104572
  H      -5.842653     -2.115624      2.831261
  H      -5.452142      0.856129     -1.662090
  H      -4.514011      1.673231     -0.409144
  H      -4.873742     -1.349668     -2.432601
  H      -3.846389     -2.425094     -1.488956
  H      -5.471224     -2.022114     -0.915689
  H      -2.334845      0.974614     -1.076232
  H      -2.049185     -0.663272     -1.682976
  H      -3.176532      0.403559     -2.531209
  H      -6.841471      1.341513      0.363336
  H      -6.712730     -0.391989      0.126586
  B      -1.050440      0.954242      1.356930
  H      -2.033509      1.591871      1.105470
  H      -0.118048      1.456570      0.709050
  C       1.944979      3.582656      1.501837
  C       2.784835      2.347329      1.989031
  O       0.657426      3.332065      2.100427
  O       1.785772      1.320959      2.137610
  B       0.542898      1.949537      2.222903
  H       4.208428      3.301934      3.362291
  H       2.642953      2.892615      4.089314
  C      -0.691455      1.326905      3.059582
  C      -0.401690      0.310159      4.007842
  C      -1.035959      0.594328      5.201851
  H       0.231034     -0.540943      3.784522
  C      -1.737906      1.783547      4.993635
  H      -1.017876      0.031766      6.121927
  H      -2.356721      2.332386      5.689370
  N      -1.551190      2.218372      3.749598
  C      -2.130585      3.430451      3.187132
  H      -1.336151      4.121490      2.902812
  H      -2.715140      3.186780      2.296989
  H      -2.777858      3.883207      3.937372
74
Coordinates from ORCA-job input_IRC_F E -1325.541538968569
  C      -2.261169     -1.339231      0.817115
  C      -1.076236     -0.628064      1.108660
  C       0.121809     -1.359038      1.164815
  C       0.168521     -2.735269      0.974149
  C      -1.005421     -3.427057      0.701351
  C      -2.202676     -2.726342      0.618717
  H       1.049117     -0.823267      1.360344
  H       1.118289     -3.261745      1.025496
  H      -0.993251     -4.502373      0.542446
  H      -3.116633     -3.263238      0.387918
  N      -3.513296     -0.644592      0.695396
  C      -4.454036     -0.762623      1.833956
  C      -3.987746     -0.392196     -0.687874
  C      -5.489600      0.374677      1.745585
  C      -3.670861     -0.542580      3.135464
  C      -5.180671     -2.123402      1.957463
  C      -5.033215      0.737558     -0.655615
  C      -4.583612     -1.622592     -1.411293
  C      -2.810578      0.107674     -1.541956
  H      -6.245858      0.220773      2.524793
  H      -4.975876      1.317909      1.977203
  C      -6.131821      0.506080      0.372236
  H      -2.953994     -1.343725      3.331801
  C       2.448283      4.929146      2.006347
  H       1.811131      5.728704      1.620727
  H       2.428512      4.983124      3.096562
  H       3.472642      5.118549      1.669567
  C       1.745166      3.621555     -0.016719
  H       0.988623      4.374402     -0.252917
  H       2.668472      3.884300     -0.539977
  H       1.388846      2.664841     -0.409195
  C       3.835988      1.862319      0.994378
  H       4.581206      2.639802      0.796105
  H       4.361464      0.993579      1.399069
  H       3.388035      1.561866      0.044815
  C       3.402066      2.563929      3.373465
  H       3.812789      1.618853      3.735758
  H      -3.119193      0.395905      3.075102
  H      -4.355309     -0.486571      3.988720
  H      -5.792044     -2.365960      1.085201
  H      -4.463956     -2.935682      2.104147
  H      -5.842441     -2.115202      2.831219
  H      -5.452381      0.856205     -1.661912
  H      -4.514055      1.673254     -0.409099
  H      -4.873672     -1.349520     -2.432300
  H      -3.846138     -2.425289     -1.488839
  H      -5.471210     -2.022159     -0.915241
  H      -2.334956      0.974382     -1.076277
  H      -2.049264     -0.663644     -1.683107
  H      -3.176956      0.403404     -2.530927
  H      -6.841355      1.341557      0.363535
  H      -6.712766     -0.392051      0.126605
  B      -1.049432      0.953375      1.362391
  H      -2.033469      1.593289      1.106765
  H      -0.116951      1.459299      0.716241
  C       1.944122      3.581986      1.501758
  C       2.783803      2.346405      1.988911
  O       0.656445      3.330638      2.098747
  O       1.784995      1.319714      2.136608
  B       0.542895      1.948185      2.218341
  H       4.208940      3.302383      3.360631
  H       2.642385      2.892646      4.088867
  C      -0.689832      1.327503      3.057799
  C      -0.399479      0.312228      4.006113
  C      -1.035653      0.594470      5.200049
  H       0.231508     -0.540670      3.785277
  C      -1.737648      1.785044      4.991781
  H      -1.017709      0.030221      6.121907
  H      -2.359071      2.334358      5.689014
  N      -1.548431      2.219663      3.748444
  C      -2.130337      3.430664      3.187537
  H      -1.335848      4.120925      2.903352
  H      -2.714849      3.184890      2.298444
  H      -2.778382      3.883674      3.938051
74
Coordinates from ORCA-job input_IRC_F E -1325.541709752107
  C      -2.261248     -1.339303      0.816722
  C      -1.076148     -0.628209      1.108344
  C       0.121971     -1.358910      1.164035
  C       0.168631     -2.735278      0.973814
  C      -1.005459     -3.427055      0.701403
  C      -2.202908     -2.726427      0.618733
  H       1.049133     -0.823258      1.360166
  H       1.118277     -3.261723      1.025643
  H      -0.993139     -4.502210      0.542553
  H      -3.116895     -3.263445      0.388200
  N      -3.513264     -0.644448      0.695311
  C      -4.454022     -0.762643      1.833712
  C      -3.987700     -0.392238     -0.687822
  C      -5.489606      0.374659      1.745509
  C      -3.671111     -0.542933      3.135372
  C      -5.180549     -2.123360      1.957175
  C      -5.033179      0.737534     -0.655586
  C      -4.583566     -1.622681     -1.411087
  C      -2.810598      0.107490     -1.541935
  H      -6.246002      0.220822      2.524624
  H      -4.975734      1.317781      1.977224
  C      -6.131798      0.506060      0.372219
  H      -2.954070     -1.344194      3.331358
  C       2.447978      4.929130      2.006073
  H       1.810799      5.728938      1.620190
  H       2.428147      4.982285      3.096341
  H       3.472376      5.118140      1.668794
  C       1.745557      3.621811     -0.016750
  H       0.988821      4.374802     -0.252416
  H       2.668963      3.884675     -0.539833
  H       1.389274      2.664652     -0.408074
  C       3.835995      1.862460      0.994819
  H       4.580830      2.640505      0.796717
  H       4.360811      0.993490      1.400411
  H       3.387144      1.562265      0.045713
  C       3.401999      2.563638      3.373408
  H       3.812459      1.617898      3.735281
  H      -3.119919      0.395829      3.075403
  H      -4.356156     -0.487276      3.988260
  H      -5.792019     -2.365386      1.084848
  H      -4.463537     -2.935486      2.103789
  H      -5.842208     -2.114931      2.831081
  H      -5.452521      0.856242     -1.661788
  H      -4.514078      1.673262     -0.409064
  H      -4.873619     -1.349447     -2.432035
  H      -3.846007     -2.425389     -1.488738
  H      -5.471146     -2.022190     -0.914939
  H      -2.334996      0.974213     -1.076289
  H      -2.049336     -0.663902     -1.683209
  H      -3.177256      0.403279     -2.530741
  H      -6.841277      1.341593      0.363655
  H      -6.712784     -0.392068      0.126620
  B      -1.049418      0.953062      1.365783
  H      -2.032774      1.593972      1.107895
  H      -0.116020      1.461236      0.721397
  C       1.943749      3.581756      1.501629
  C       2.783385      2.345982      1.988960
  O       0.655898      3.330013      2.097438
  O       1.784988      1.318866      2.135738
  B       0.542396      1.947058      2.214765
  H       4.208995      3.302309      3.359478
  H       2.642182      2.892596      4.088528
  C      -0.689169      1.328079      3.057279
  C      -0.397773      0.312520      4.005489
  C      -1.035620      0.594898      5.199463
  H       0.231773     -0.540071      3.785732
  C      -1.737561      1.785676      4.991742
  H      -1.017612      0.029611      6.120951
  H      -2.360003      2.335203      5.687792
  N      -1.547054      2.220992      3.747522
  C      -2.130109      3.430701      3.187972
  H      -1.335602      4.120856      2.903540
  H      -2.714730      3.183623      2.299298
  H      -2.778517      3.883824      3.938403
74
Coordinates from ORCA-job input_IRC_F E -1325.541973527869
  C      -2.261248     -1.339283      0.816146
  C      -1.075909     -0.628191      1.107955
  C       0.122245     -1.358717      1.162715
  C       0.168779     -2.735240      0.973100
  C      -1.005545     -3.427001      0.701447
  C      -2.203227     -2.726529      0.618693
  H       1.049213     -0.823237      1.359778
  H       1.118268     -3.261712      1.025873
  H      -0.992952     -4.502019      0.542792
  H      -3.117324     -3.263814      0.388758
  N      -3.513131     -0.644140      0.695207
  C      -4.454021     -0.762678      1.833355
  C      -3.987667     -0.392306     -0.687771
  C      -5.489594      0.374604      1.745384
  C      -3.671621     -0.543622      3.135207
  C      -5.180328     -2.123252      1.956614
  C      -5.033146      0.737499     -0.655552
  C      -4.583468     -1.622862     -1.410710
  C      -2.810642      0.107157     -1.541920
  H      -6.246230      0.220893      2.524306
  H      -4.975486      1.317554      1.977250
  C      -6.131764      0.506048      0.372195
  H      -2.954306     -1.344952      3.330545
  C       2.447287      4.928962      2.005541
  H       1.810294      5.729142      1.619330
  H       2.427490      4.980876      3.095863
  H       3.471703      5.117345      1.667445
  C       1.746277      3.622243     -0.016761
  H       0.989288      4.375414     -0.251554
  H       2.669827      3.885320     -0.539579
  H       1.390093      2.664371     -0.406266
  C       3.835893      1.862732      0.995767
  H       4.580088      2.641623      0.797916
  H       4.359600      0.993512      1.402736
  H       3.385650      1.562915      0.047306
  C       3.401760      2.562965      3.373177
  H       3.811765      1.616436      3.734366
  H      -3.121259      0.395678      3.076060
  H      -4.357679     -0.488711      3.987361
  H      -5.791971     -2.364389      1.084198
  H      -4.462863     -2.935096      2.103055
  H      -5.841725     -2.114477      2.830743
  H      -5.452761      0.856303     -1.661588
  H      -4.514113      1.673267     -0.409002
  H      -4.873543     -1.349348     -2.431536
  H      -3.845807     -2.425538     -1.488530
  H      -5.471000     -2.022261     -0.914381
  H      -2.335036      0.973886     -1.076294
  H      -2.049503     -0.664365     -1.683415
  H      -3.177807      0.403047     -2.530440
  H      -6.841135      1.341658      0.363854
  H      -6.712815     -0.392075      0.126644
  B      -1.049607      0.952634      1.371781
  H      -2.031104      1.595156      1.110114
  H      -0.114070      1.464847      0.731027
  C       1.943215      3.581454      1.501355
  C       2.782706      2.345396      1.989062
  O       0.654979      3.329013      2.094897
  O       1.785210      1.317427      2.133914
  B       0.540983      1.944830      2.207731
  H       4.208899      3.301860      3.357386
  H       2.641905      2.892471      4.087975
  C      -0.688152      1.328967      3.056977
  C      -0.395365      0.313285      4.004952
  C      -1.035317      0.595597      5.198676
  H       0.232581     -0.539079      3.786404
  C      -1.737312      1.786824      4.991751
  H      -1.017496      0.028728      6.118816
  H      -2.361389      2.336512      5.685161
  N      -1.544827      2.222969      3.746566
  C      -2.129669      3.430897      3.188655
  H      -1.335235      4.121009      2.903698
  H      -2.714560      3.181433      2.300765
  H      -2.778552      3.883960      3.938960
74
Coordinates from ORCA-job input_IRC_F E -1325.542220116663
  C      -2.261070     -1.339001      0.815783
  C      -1.075494     -0.627817      1.107896
  C       0.122542     -1.358516      1.161568
  C       0.168832     -2.735096      0.972201
  C      -1.005603     -3.426859      0.701365
  C      -2.203358     -2.726443      0.618563
  H       1.049435     -0.823221      1.359257
  H       1.118247     -3.261725      1.025994
  H      -0.992812     -4.501978      0.543140
  H      -3.117616     -3.264085      0.389425
  N      -3.512867     -0.643684      0.695194
  C      -4.454030     -0.762683      1.833040
  C      -3.987664     -0.392358     -0.687732
  C      -5.489559      0.374541      1.745263
  C      -3.672240     -0.544341      3.135033
  C      -5.180107     -2.123080      1.955925
  C      -5.033153      0.737473     -0.655547
  C      -4.583367     -1.623050     -1.410306
  C      -2.810721      0.106833     -1.541946
  H      -6.246405      0.220929      2.523984
  H      -4.975257      1.317339      1.977260
  C      -6.131732      0.506066      0.372183
  H      -2.954675     -1.345609      3.329721
  C       2.446444      4.928574      2.005019
  H       1.809831      5.729028      1.618624
  H       2.426822      4.979668      3.095295
  H       3.470733      5.116444      1.666165
  C       1.747101      3.622592     -0.016790
  H       0.989937      4.375851     -0.250800
  H       2.670694      3.885902     -0.539381
  H       1.391025      2.664200     -0.404927
  C       3.835622      1.863079      0.996825
  H       4.579308      2.642506      0.799277
  H       4.358376      0.993807      1.404929
  H       3.384397      1.563433      0.048872
  C       3.401204      2.562165      3.372784
  H       3.810924      1.615266      3.733390
  H      -3.122672      0.395499      3.076982
  H      -4.359250     -0.490494      3.986408
  H      -5.791933     -2.363467      1.083497
  H      -4.462322     -2.934673      2.102131
  H      -5.841159     -2.114103      2.830263
  H      -5.452984      0.856357     -1.661452
  H      -4.514139      1.673250     -0.408948
  H      -4.873515     -1.349325     -2.431013
  H      -3.845647     -2.425659     -1.488269
  H      -5.470803     -2.022375     -0.913786
  H      -2.335011      0.973505     -1.076276
  H      -2.049747     -0.664837     -1.683671
  H      -3.178362      0.402811     -2.530215
  H      -6.840996      1.341736      0.364027
  H      -6.712848     -0.392034      0.126664
  B      -1.049814      0.952342      1.377836
  H      -2.028851      1.596479      1.112584
  H      -0.111506      1.468708      0.741323
  C       1.942748      3.581161      1.501022
  C       2.781945      2.345020      1.989100
  O       0.654011      3.328017      2.092021
  O       1.785398      1.316181      2.131528
  B       0.538884      1.942321      2.199469
  H       4.208540      3.300889      3.355280
  H       2.641738      2.892280      4.087569
  C      -0.687433      1.329462      3.057732
  C      -0.394064      0.314685      4.005187
  C      -1.034666      0.596408      5.198113
  H       0.233990     -0.538255      3.786855
  C      -1.736556      1.787828      4.991263
  H      -1.017492      0.027863      6.116679
  H      -2.362671      2.337786      5.682390
  N      -1.542951      2.224022      3.747027
  C      -2.129115      3.431292      3.188999
  H      -1.335085      4.121590      2.903525
  H      -2.714432      3.179487      2.302165
  H      -2.778260      3.883919      3.939452
74
Coordinates from ORCA-job input_IRC_F E -1325.542447533646
  C      -2.260789     -1.338525      0.815562
  C      -1.074957     -0.627423      1.108031
  C       0.122946     -1.358204      1.160600
  C       0.168958     -2.734906      0.971257
  C      -1.005605     -3.426723      0.701144
  C      -2.203393     -2.726095      0.618430
  H       1.049813     -0.823232      1.358667
  H       1.118147     -3.261683      1.025962
  H      -0.992738     -4.501902      0.543578
  H      -3.117723     -3.264134      0.390161
  N      -3.512538     -0.643039      0.695227
  C      -4.454016     -0.762631      1.832663
  C      -3.987616     -0.392387     -0.687651
  C      -5.489529      0.374521      1.745122
  C      -3.672908     -0.545003      3.134895
  C      -5.179909     -2.122887      1.955122
  C      -5.033164      0.737454     -0.655555
  C      -4.583290     -1.623216     -1.409873
  C      -2.810832      0.106537     -1.542009
  H      -6.246530      0.220927      2.523696
  H      -4.975054      1.317156      1.977262
  C      -6.131704      0.506098      0.372157
  H      -2.955061     -1.346240      3.328939
  C       2.445599      4.928079      2.004596
  H       1.809239      5.728778      1.617991
  H       2.426156      4.978652      3.094798
  H       3.469691      5.115501      1.664970
  C       1.748038      3.622855     -0.016965
  H       0.990668      4.376177     -0.250222
  H       2.671621      3.886410     -0.539303
  H       1.392044      2.664095     -0.404120
  C       3.835292      1.863496      0.997756
  H       4.578648      2.643274      0.800675
  H       4.357248      0.994196      1.407002
  H       3.383416      1.563816      0.050308
  C       3.400336      2.561405      3.372371
  H       3.810012      1.614122      3.732445
  H      -3.124108      0.395318      3.078137
  H      -4.360861     -0.492519      3.985547
  H      -5.791933     -2.362644      1.082739
  H      -4.461868     -2.934298      2.101067
  H      -5.840596     -2.113826      2.829715
  H      -5.453180      0.856401     -1.661373
  H      -4.514162      1.673219     -0.408915
  H      -4.873537     -1.349374     -2.430494
  H      -3.845487     -2.425786     -1.487972
  H      -5.470594     -2.022530     -0.913169
  H      -2.334939      0.973086     -1.076255
  H      -2.050045     -0.665312     -1.683968
  H      -3.178880      0.402601     -2.530057
  H      -6.840871      1.341835      0.364173
  H      -6.712890     -0.391960      0.126677
  B      -1.049698      0.952078      1.384098
  H      -2.026373      1.598092      1.115007
  H      -0.108424      1.472611      0.751717
  C       1.942108      3.580730      1.500645
  C       2.780896      2.344596      1.989013
  O       0.652797      3.326935      2.088974
  O       1.785150      1.315018      2.128680
  B       0.536456      1.939703      2.190624
  H       4.208123      3.299682      3.353255
  H       2.641540      2.892067      4.087361
  C      -0.686945      1.329877      3.058573
  C      -0.392485      0.315428      4.005430
  C      -1.034162      0.597520      5.198004
  H       0.235338     -0.537037      3.787352
  C      -1.735584      1.788496      4.991051
  H      -1.017563      0.026745      6.115338
  H      -2.364069      2.339185      5.680142
  N      -1.541314      2.225068      3.747385
  C      -2.128433      3.431479      3.189311
  H      -1.335098      4.122323      2.903120
  H      -2.714326      3.177841      2.303463
  H      -2.777787      3.883851      3.939924
74
Coordinates from ORCA-job input_IRC_F E -1325.542647757034
  C      -2.260360     -1.337842      0.815484
  C      -1.074233     -0.626776      1.108390
  C       0.123450     -1.357990      1.159827
  C       0.169068     -2.734622      0.970328
  C      -1.005573     -3.426324      0.700882
  C      -2.203216     -2.725578      0.618327
  H       1.050420     -0.823258      1.358085
  H       1.118135     -3.261636      1.025721
  H      -0.992764     -4.501757      0.544053
  H      -3.117685     -3.263864      0.390896
  N      -3.512076     -0.642216      0.695317
  C      -4.454006     -0.762504      1.832364
  C      -3.987591     -0.392354     -0.687619
  C      -5.489513      0.374532      1.744986
  C      -3.673591     -0.545718      3.134861
  C      -5.179736     -2.122722      1.954266
  C      -5.033177      0.737442     -0.655609
  C      -4.583181     -1.623405     -1.409426
  C      -2.810916      0.106276     -1.542109
  H      -6.246579      0.220890      2.523454
  H      -4.974899      1.317059      1.977257
  C      -6.131707      0.506180      0.372108
  H      -2.955462     -1.346750      3.328251
  C       2.444582      4.927503      2.004214
  H       1.808572      5.728334      1.617521
  H       2.425521      4.977879      3.094443
  H       3.468661      5.114557      1.663965
  C       1.748896      3.623037     -0.017339
  H       0.991460      4.376365     -0.249974
  H       2.672640      3.886810     -0.539379
  H       1.393126      2.664055     -0.404053
  C       3.834975      1.863836      0.998641
  H       4.578161      2.643934      0.801989
  H       4.356280      0.994694      1.408770
  H       3.382835      1.564011      0.051338
  C       3.399312      2.560456      3.371979
  H       3.808931      1.613149      3.731561
  H      -3.125474      0.395202      3.079529
  H      -4.362390     -0.494670      3.984833
  H      -5.791996     -2.361981      1.081938
  H      -4.461541     -2.934004      2.099889
  H      -5.840067     -2.113676      2.829077
  H      -5.453308      0.856417     -1.661337
  H      -4.514176      1.673201     -0.408916
  H      -4.873606     -1.349500     -2.429973
  H      -3.845364     -2.425882     -1.487649
  H      -5.470389     -2.022715     -0.912560
  H      -2.334813      0.972669     -1.076248
  H      -2.050389     -0.665757     -1.684301
  H      -3.179315      0.402451     -2.529974
  H      -6.840770      1.341953      0.364263
  H      -6.712952     -0.391861      0.126675
  B      -1.049604      0.951993      1.389958
  H      -2.023434      1.599797      1.117172
  H      -0.105052      1.476142      0.761316
  C       1.941321      3.580325      1.500197
  C       2.779670      2.344088      1.988831
  O       0.651351      3.326021      2.085866
  O       1.784803      1.313778      2.125493
  B       0.533610      1.937152      2.181912
  H       4.207563      3.298307      3.351450
  H       2.641203      2.891868      4.087422
  C      -0.686604      1.329890      3.059589
  C      -0.391571      0.316615      4.006282
  C      -1.033354      0.597923      5.198526
  H       0.236920     -0.536106      3.787778
  C      -1.735109      1.789481      4.991545
  H      -1.017732      0.025952      6.114446
  H      -2.365041      2.340269      5.678354
  N      -1.539911      2.225681      3.747896
  C      -2.127883      3.431746      3.189544
  H      -1.335236      4.123007      2.902541
  H      -2.714278      3.176624      2.304544
  H      -2.777125      3.883737      3.940330
74
Coordinates from ORCA-job input_IRC_F E -1325.542833358482
  C      -2.259793     -1.336904      0.815498
  C      -1.073348     -0.626186      1.108824
  C       0.124108     -1.357520      1.159174
  C       0.169357     -2.734271      0.969393
  C      -1.005451     -3.425937      0.700594
  C      -2.203008     -2.724695      0.618277
  H       1.051212     -0.823355      1.357508
  H       1.118159     -3.261550      1.025273
  H      -0.992875     -4.501426      0.544560
  H      -3.117567     -3.263294      0.391643
  N      -3.511552     -0.641185      0.695470
  C      -4.453938     -0.762376      1.831997
  C      -3.987470     -0.392311     -0.687519
  C      -5.489483      0.374595      1.744842
  C      -3.674300     -0.546313      3.134903
  C      -5.179578     -2.122545      1.953267
  C      -5.033191      0.737459     -0.655655
  C      -4.583119     -1.623552     -1.408921
  C      -2.811029      0.106054     -1.542259
  H      -6.246605      0.220838      2.523247
  H      -4.974788      1.317012      1.977247
  C      -6.131699      0.506260      0.372045
  H      -2.955802     -1.347300      3.327615
  C       2.443621      4.926848      2.003953
  H       1.807686      5.727869      1.617081
  H       2.424816      4.977157      3.094079
  H       3.467437      5.113529      1.663077
  C       1.749912      3.623164     -0.017951
  H       0.992276      4.376549     -0.250076
  H       2.673718      3.887150     -0.539514
  H       1.394329      2.664061     -0.404540
  C       3.834653      1.864267      0.999259
  H       4.577703      2.644528      0.803332
  H       4.355449      0.995155      1.410478
  H       3.382613      1.564132      0.052242
  C       3.397865      2.559625      3.371608
  H       3.807695      1.611938      3.730772
  H      -3.126955      0.395026      3.081217
  H      -4.363965     -0.497041      3.984250
  H      -5.792092     -2.361365      1.081067
  H      -4.461254     -2.933785      2.098559
  H      -5.839559     -2.113623      2.828345
  H      -5.453409      0.856423     -1.661372
  H      -4.514189      1.673197     -0.408959
  H      -4.873706     -1.349696     -2.429411
  H      -3.845194     -2.426021     -1.487286
  H      -5.470163     -2.022925     -0.911909
  H      -2.334633      0.972243     -1.076267
  H      -2.050748     -0.666236     -1.684689
  H      -3.179697      0.402357     -2.529942
  H      -6.840695      1.342117      0.364308
  H      -6.713033     -0.391725      0.126658
  B      -1.049065      0.951812      1.395874
  H      -2.020278      1.601896      1.119064
  H      -0.101463      1.479439      0.770744
  C       1.940343      3.579711      1.499638
  C       2.778233      2.343491      1.988515
  O       0.649642      3.324914      2.082555
  O       1.783950      1.312582      2.121976
  B       0.530875      1.934550      2.172921
  H       4.206808      3.296725      3.349705
  H       2.640794      2.891574      4.087537
  C      -0.686593      1.329859      3.061118
  C      -0.390238      0.317190      4.007059
  C      -1.032813      0.598843      5.199189
  H       0.238294     -0.534831      3.788468
  C      -1.734465      1.790137      4.992211
  H      -1.017906      0.025103      6.114364
  H      -2.365945      2.341385      5.677186
  N      -1.538788      2.226403      3.748347
  C      -2.127259      3.431657      3.189928
  H      -1.335348      4.123610      2.901855
  H      -2.714327      3.175612      2.305538
  H      -2.776454      3.883744      3.940820
74
Coordinates from ORCA-job input_IRC_F E -1325.542999368179
  C      -2.259114     -1.335851      0.815585
  C      -1.072359     -0.625337      1.109384
  C       0.124973     -1.357215      1.158583
  C       0.169715     -2.733910      0.968452
  C      -1.005353     -3.425246      0.700339
  C      -2.202662     -2.723745      0.618265
  H       1.052274     -0.823410      1.357001
  H       1.118288     -3.261409      1.024620
  H      -0.993061     -4.500896      0.545061
  H      -3.117326     -3.262342      0.392391
  N      -3.510895     -0.639969      0.695663
  C      -4.453876     -0.762152      1.831742
  C      -3.987390     -0.392184     -0.687462
  C      -5.489469      0.374662      1.744712
  C      -3.675054     -0.547125      3.135058
  C      -5.179397     -2.122404      1.952211
  C      -5.033185      0.737480     -0.655757
  C      -4.582957     -1.623765     -1.408356
  C      -2.811074      0.105834     -1.542434
  H      -6.246581      0.220780      2.523050
  H      -4.974714      1.317028      1.977230
  C      -6.131721      0.506398      0.371968
  H      -2.956147     -1.347755      3.327040
  C       2.442253      4.926084      2.003582
  H       1.806733      5.727238      1.616762
  H       2.424023      4.976442      3.093807
  H       3.466215      5.112474      1.662280
  C       1.750776      3.623287     -0.018743
  H       0.993213      4.376647     -0.250561
  H       2.674967      3.887472     -0.539748
  H       1.395643      2.664113     -0.405584
  C       3.834362      1.864540      1.000031
  H       4.577331      2.645149      0.804638
  H       4.354702      0.995708      1.411990
  H       3.382694      1.564141      0.052771
  C       3.396374      2.558359      3.371178
  H       3.806110      1.610822      3.729982
  H      -3.128448      0.394954      3.083168
  H      -4.365515     -0.499563      3.983777
  H      -5.792219     -2.360789      1.080116
  H      -4.461038     -2.933621      2.097092
  H      -5.839055     -2.113658      2.827481
  H      -5.453446      0.856401     -1.661412
  H      -4.514205      1.673235     -0.409041
  H      -4.873820     -1.349935     -2.428792
  H      -3.845066     -2.426119     -1.486884
  H      -5.469927     -2.023148     -0.911212
  H      -2.334400      0.971820     -1.076335
  H      -2.051136     -0.666690     -1.685129
  H      -3.180030      0.402324     -2.529949
  H      -6.840611      1.342287      0.364306
  H      -6.713126     -0.391560      0.126629
  B      -1.048807      0.951900      1.401531
  H      -2.016536      1.604033      1.120692
  H      -0.097771      1.482295      0.779412
  C       1.939248      3.579205      1.498934
  C       2.776721      2.342780      1.988088
  O       0.647831      3.323905      2.079069
  O       1.783376      1.311186      2.118255
  B       0.527615      1.931946      2.164406
  H       4.205815      3.295003      3.348078
  H       2.640089      2.891247      4.087782
  C      -0.686438      1.329872      3.062196
  C      -0.389305      0.317953      4.008524
  C      -1.032242      0.599498      5.200454
  H       0.239784     -0.533784      3.789289
  C      -1.733888      1.790691      4.993213
  H      -1.018081      0.024712      6.114496
  H      -2.366618      2.342415      5.676596
  N      -1.537919      2.226811      3.749190
  C      -2.126844      3.431836      3.190201
  H      -1.335514      4.123893      2.901200
  H      -2.714410      3.174797      2.306587
  H      -2.775660      3.883747      3.941267
