74
Coordinates from ORCA-job input_IRC_B E -1325.542117359900
  C          -2.28269116903675     -1.36100977929448      0.88054022193648
  C          -1.18939847543499     -0.55924574095206      1.27306211264037
  C           0.07300838810610     -1.17034783057593      1.34289007869267
  C           0.25581655106520     -2.52391021723554      1.08552155812859
  C          -0.83280599297845     -3.30814403477377      0.71945033361289
  C          -2.08696620878398     -2.72126453804042      0.60950777086655
  H           0.93752042153786     -0.56808488202416      1.61115172113892
  H           1.24758421115093     -2.96278548310306      1.15724738993431
  H          -0.70646375693221     -4.36568047413647      0.50317494026701
  H          -2.93397062140707     -3.32014199788534      0.29272664446158
  N          -3.57267595088357     -0.76037853162325      0.70702335998637
  C          -4.61375059853808     -1.05352510665691      1.72009988187457
  C          -3.93185248583123     -0.36797394255011     -0.67631312050996
  C          -5.63354788377274      0.10127248234302      1.70254989850939
  C          -3.96870836137128     -1.06947651203870      3.11325892559782
  C          -5.35409477123353     -2.40034320616925      1.54171679793933
  C          -4.99878170678731      0.74049145442090     -0.61084977725156
  C          -4.42628636403915     -1.53648489090863     -1.56036432076514
  C          -2.70419840044126      0.23237563119129     -1.38105089650422
  H          -6.45250304147884     -0.13604272982698      2.39266495162742
  H          -5.13215561500780      0.99836538875082      2.08940315070835
  C          -6.16623543864445      0.40239843643748      0.30723167198120
  H          -3.26543180406482     -1.89832404679840      3.23290433769951
  C           2.85165345665062      4.87171898342704      1.66541348250970
  H           2.23693885528194      5.73297702258654      1.39094449732026
  H           3.13498222398616      4.98046128840912      2.71386097953503
  H           3.76150430082394      4.89951863483644      1.05612386375942
  C           1.53678053213649      3.56421088312162     -0.01808888736548
  H           0.84175080444566      4.39805286376337     -0.14677208096300
  H           2.33940578829179      3.66987107067877     -0.75380705668705
  H           0.98943589502535      2.64146263536599     -0.22801426995294
  C           3.54416055789819      1.57579629870396      0.60864903626054
  H           4.28677402224561      2.23088464213287      0.14057072445359
  H           4.06281403898587      0.67907550733082      0.95792153871411
  H           2.82273185837078      1.26919503267306     -0.15075621815455
  C           3.86546322100211      2.46166146183171      2.92928063088647
  H           4.19693685202839      1.47790138174547      3.27094229146959
  H          -3.42635068105649     -0.14153593131258      3.30038429208327
  H          -4.74750770445727     -1.17693507660222      3.87645749461820
  H          -5.93505373294729     -2.44604484465251      0.61890837529553
  H          -4.65539005620447     -3.24076167716444      1.54403590267810
  H          -6.05143310041524     -2.55595684167808      2.37289469823833
  H          -5.34832286468295      0.95508732266181     -1.62813132915209
  H          -4.51329177921030      1.65122148768808     -0.23640441423820
  H          -4.57473537902382     -1.19655842617963     -2.59144097776560
  H          -3.68470793391562     -2.33988923729497     -1.58311915416557
  H          -5.37244047939043     -1.95808025127550     -1.21609122369269
  H          -2.27113122638231      1.04815195485404     -0.79598750627520
  H          -1.92414338078742     -0.51320872613935     -1.55641562651098
  H          -3.01013149956230      0.63707835708161     -2.35124054177085
  H          -6.87020427407519      1.24167480928924      0.34328187610742
  H          -6.73028751446238     -0.45382451319218     -0.08352101517143
  B          -1.40654004861871      0.99373826710772      1.52208462730829
  H          -2.48930150784703      1.38721038506493      1.85251675601682
  H          -0.77384241395988      1.76022200550628      0.83203222948061
  C           2.08198061107578      3.58102206824019      1.41156188194662
  C           2.86492511405735      2.27130490545055      1.78548847519365
  O           0.94069759641618      3.52840970923809      2.30313732256356
  O           1.81427296176625      1.41465079998672      2.28370310982433
  B           0.75139357824613      2.20881040660242      2.64252712249308
  H           4.74685293989848      3.02633933349636      2.61002919071877
  H           3.41486758909923      2.97729991423918      3.78236881831832
  C          -0.47723636885696      1.64181073572516      3.41301290661386
  C          -0.50359886096754      0.45230190107251      4.16826391955664
  C          -1.52568508715700      0.53396988037689      5.11308685107041
  H           0.16410282319525     -0.38213528066843      4.00684904363948
  C          -2.11922238677785      1.77891594313022      4.93795640408135
  H          -1.83099167500831     -0.21595000507572      5.82969523555134
  H          -2.97129072824440      2.20694797697627      5.45075701847378
  N          -1.48894523125530      2.44619581604362      3.95638151192267
  C          -1.89133809968923      3.73213182972284      3.41744873187267
  H          -1.03003392716077      4.39824083923025      3.37103203499351
  H          -2.28941821068889      3.59838505643569      2.40729717265808
  H          -2.66278499107856      4.16215347050868      4.05783168348888
