54
Coordinates from ORCA-job input_IRC_B E -914.937143844220
  C          -1.31173657693004     -2.08087348216030      0.52911260045024
  C          -0.03660390054546     -1.66287600900003      0.93372119625032
  C           0.98669284489502     -2.60814127570258      0.71935773659745
  C           0.76586081722038     -3.85557611505682      0.15687017576574
  C          -0.52209160907180     -4.22484540733715     -0.22730449937646
  C          -1.56664490303077     -3.33369424154729     -0.03607811236869
  H           1.99365999982226     -2.32815845018526      1.01858584477694
  H           1.59419176209335     -4.54456982614050      0.01267369991699
  H          -0.71419612214365     -5.19582345030785     -0.67297445586707
  H          -2.56692627636316     -3.62223839457664     -0.33029185455967
  H          -1.90990660135206     -0.24939018602863      1.00063238413259
  B           0.37560543788781     -0.27203840148507      1.69502010399097
  N          -2.43050349138777     -1.11705165301767      0.73113825192522
  C          -3.29438097194812     -1.39559389381536      1.99960550138223
  C          -3.18448597366565     -0.67422684788353     -0.55166139967498
  C          -4.21750796498663     -0.18413123531871      2.21585116110475
  C          -2.34853026252029     -1.51610956814282      3.19712547828074
  C          -4.10415579976490     -2.69094026610846      1.91938066379652
  C          -4.03790188385369      0.53826019853524     -0.14897312740328
  C          -4.04259047907906     -1.76885686396631     -1.20163456151931
  C          -2.16522847131679     -0.22119081051404     -1.59772507217707
  H          -4.88559420373419     -0.43782025329014      3.04555619298968
  H          -3.60918030389599      0.66694414722479      2.54151182768087
  C          -5.00946704143780      0.23224408173437      0.98221087937547
  H          -1.71674716725876     -2.40432658803741      3.13181443585844
  H          -1.69319955923605     -0.65229434609073      3.30374276899793
  H          -2.96477768147718     -1.59696566442745      4.09705470486551
  H          -3.49241152075359     -3.53795997772037      1.60641765332825
  H          -4.45792277494158     -2.90588662936170      2.93065704306819
  H          -4.98692245409556     -2.62151429954365      1.28480401574679
  H          -4.56377655243078      0.88088870017498     -1.04622836788586
  H          -3.36946280448814      1.35529431288798      0.15762105728487
  H          -4.72392729620827     -1.27120088502721     -1.89743347130320
  H          -3.43094829970214     -2.45626812723051     -1.78755469662360
  H          -4.65104492118891     -2.34814241229369     -0.51319062136005
  H          -1.68003605167178      0.70753107646222     -1.29916577256010
  H          -1.40985479615619     -0.98582541336951     -1.79219330358956
  H          -2.70498291454687     -0.03890735004146     -2.53179326634741
  H          -5.60300784847212      1.12178405474410      1.21329727670688
  H          -5.72224103774297     -0.54624504397118      0.68296721252737
  H           1.53447779196583     -0.02533558281523      1.39281292542593
  C          -0.47329641096282      1.08110446392398      1.39391102393047
  C          -1.22138218631561      1.90336196604018      2.22959902802053
  C          -1.37807586567291      3.17655268925606      1.61961459938776
  H          -1.56287464595070      1.62532755743749      3.21987642217568
  H          -1.84650638359316      4.05480902665254      2.04343551421546
  H           0.33824729632306     -0.48644522976477      2.89695835092050
  C          -0.74364407625861      3.10421191368620      0.40237328270051
  H          -0.57794385969797      3.85733590876280     -0.35627839941000
  N          -0.23049360459278      1.84174993027292      0.26006407449477
  C           0.65193088372303      1.43312267946465     -0.81227001131898
  H           0.38071064940652      1.96115666574501     -1.73095597128919
  H           1.69576851495695      1.63841691894921     -0.56280451708653
  H           0.55266834142787      0.35942094876308     -0.97980220234784
