74
Coordinates from ORCA-job input_IRC_F E -1325.542030007847
  C          -2.12977107451882     -1.93052286643739      1.30716356614794
  C          -0.78185059836066     -1.60161896828690      1.21695428665727
  C          -0.34723749972043     -0.34084234137007      0.78184303504217
  C          -1.32789215628872      0.60920890677293      0.42180297927756
  C          -2.68347333165246      0.26621239179797      0.51476311355534
  C          -3.08821659350624     -0.98935005288778      0.95354350736036
  H          -2.42752181474375     -2.91917544962434      1.64564946564110
  H          -0.04088698380298     -2.35281283556876      1.48233756831191
  H          -3.43300115453113      0.99847674195617      0.23413530247709
  H          -4.14670707724791     -1.22828315140823      1.01247568510999
  B           1.21505875146002     -0.00614124489087      0.69954211964478
  H           1.69058535572739     -1.02394582140323     -0.02002154120387
  C           2.03162964142143      0.02869889614291      2.11703558264984
  C           1.60475573721675     -0.40438416890012      3.38261269195983
  C           2.33619741106277      0.26306515630390      4.36910698893742
  H           0.83052892685473     -1.14211449897624      3.54216685306445
  C           3.19208743960430      1.12877623979518      3.70072714393514
  H           2.27336742800925      0.13784107408913      5.44084619185126
  H           3.93146734108179      1.81442797189337      4.09413561677956
  H           1.58757618366907      0.88459829531769     -0.00848509003046
  B           2.52778827170074     -1.36542381022534      0.92875017396645
  O           3.84599590132399     -1.23216390096317      0.48149968614508
  O           2.28229656098452     -2.65159204630180      1.41556456964975
  C           4.59668582530087     -2.21872467972174      1.21501140201388
  C           3.53650112152582     -3.36091396552941      1.44503394581622
  C           5.81029690910617     -2.62801891348823      0.39035296525889
  H           6.48429463531693     -1.77407898240769      0.28162923936243
  H           6.36089862279185     -3.42937497653352      0.89457557725928
  H           5.53078260783721     -2.96933234720418     -0.60747163396079
  C           5.06097030335998     -1.56349685311686      2.51708507016084
  H           5.62020528253276     -0.65728879146031      2.26738802158022
  H           4.21596749503182     -1.27715341646137      3.14698375071199
  H           5.71384334690882     -2.22346127730254      3.09398059322973
  C           3.64552154864880     -4.05462260014843      2.79900876509786
  H           2.88129631476076     -4.83295650236334      2.87409688697872
  H           4.62516827969337     -4.52662895372462      2.92664814054100
  H           3.48314647823804     -3.34619204004979      3.61317883068223
  C           3.52833109976767     -4.40544556215693      0.32668094239101
  H           4.43670316089054     -5.01721819078406      0.35013324491388
  H           2.67145959901756     -5.07066703197226      0.46011517651593
  H           3.44938923370406     -3.94013992370954     -0.65911276487163
  N           3.00946842191587      1.00122109517209      2.37329831416917
  C           3.70049453274269      1.79222653113111      1.37305020528464
  H           4.13097027786704      1.12890798725417      0.62213670474358
  H           3.00896516520041      2.48894921490187      0.89182914706463
  H           4.49472838219686      2.35646577319724      1.86488338568078
  C          -1.02021354181615      2.13343327495275     -1.51177668424905
  C          -1.06548980732939      3.03356948560067      0.90642330684204
  C          -0.08364934906748      3.30029408140375     -1.87628570231460
  C          -0.14009021556842      4.17541747963278      0.44471796676060
  C          -0.31641818665281      4.54051548485078     -1.02339643112667
  H          -0.20210416047249      3.52972573620779     -2.94201158422654
  H           0.95039921800095      2.96125372994941     -1.72995794172090
  H          -0.30526449443549      5.04738211414192      1.08889905501882
  H           0.89752953579001      3.85120774994133      0.60171392353382
  H           0.39090444129848      5.32961695065378     -1.30279046942673
  H          -1.31837586915312      4.95086698535054     -1.20185056238829
  N          -0.93096717314597      1.90649098329771     -0.04750558017925
  C          -0.51058656070403      0.88667034766523     -2.25203742086169
  H           0.48907920695747      0.60936493953306     -1.91125509887695
  H          -1.17329527266530      0.02921166962628     -2.10895601214779
  H          -0.46161594405436      1.09963302200948     -3.32472344748676
  C          -2.44025838144590      2.41977233432361     -2.05447928041463
  H          -2.40463540901387      2.50604576245467     -3.14595412650126
  H          -3.12443104015042      1.60184337767043     -1.81523178495162
  H          -2.86912755059530      3.34647669014498     -1.66929038970292
  C          -2.50340093249130      3.57443385292395      1.09047906783254
  H          -3.17895124410486      2.78412002694421      1.42758689793665
  H          -2.50963981907440      4.35727025083429      1.85664263056725
  H          -2.91742690738301      4.00835800116033      0.17871570111242
  C          -0.57712224724982      2.58606095396263      2.29240569383212
  H           0.44382654913093      2.19850170932232      2.24534180480665
  H          -0.58872345330516      3.44371410591204      2.97306815770708
  H          -1.21480242574413      1.80797787584272      2.71989323261638
