54
Coordinates from ORCA-job input_IRC_B E -914.922630341524
  H           1.31367925422030      0.11260348589087      2.67394098020143
  C           2.10233267346486      0.08355554703906      1.92842943401364
  C           2.78396587088045      1.24715184543899      1.59383726218955
  C           2.43536584622595     -1.10456986588494      1.29420109113400
  C           3.81494689833830      1.26798272912275      0.64187637208489
  H           2.50478611459367      2.17691164307586      2.08365324317114
  C           3.44403206450992     -1.10832941177840      0.33750974242734
  H           1.91382927950097     -2.02622422726273      1.53521510206189
  C           4.14447257373141      0.05688929489664     -0.00082777884265
  H           3.69576944238034     -2.03764236596540     -0.15960862325475
  B           4.46181403906969      2.70518183780352      0.49391987406943
  H           5.72205409219822      2.00511928492049     -1.08012339425032
  H           5.84250052210200      2.75422965452383     -1.02742812841274
  C           3.63354404564104      3.83921238565280     -0.12061252671403
  C           2.35841438223012      3.79416903963669     -0.68218580976901
  H           8.49458733689574     -0.61811979406615     -1.34885490416315
  H           7.72982336940307      0.96346206631866     -1.46642556857721
  H           5.54613945541505      0.17864059723366     -4.38456633098431
  H           6.00968813775287      1.42602667091803     -3.23233789889066
  H           7.95114713869131     -0.01143689639230     -3.71811168866871
  H           7.06654928668198     -1.44711094632237     -3.23324602541951
  N           5.17319296889296      0.02802440731858     -1.00657651706751
  C           6.86390708509903      0.01995607246620      0.78345906920062
  H           7.87213632695989     -0.31671282485414      1.04430946255979
  H           6.86107364430606      1.11281500167137      0.77287507201278
  H           6.18253708484331     -0.31402191794036      1.57028210250275
  C           6.49770540850133     -2.09349884712344     -0.45134047390230
  C           1.98747137993648      5.09496810620507     -1.06812252394130
  H           1.77089746820710      2.89112583144011     -0.77957229915192
  C           3.05073428576997      5.91696633411213     -0.74439416104838
  H           1.06046798979750      5.40930127122870     -1.52551265568274
  H           3.17633957593593      6.98282036311417     -0.87779831391479
  N           4.03062845444408      5.16884183103794     -0.17852452539614
  C           5.30523486692753      5.68129186645047      0.27884223733690
  H           5.43856968432006      5.49073041700442      1.34621570633581
  H           6.13092208246545      5.21242539081519     -0.26386424940547
  H           5.33854925855668      6.75787863741353      0.10491763905470
  C           6.47886507369344     -0.55633726023632     -0.58813630326865
  C           4.70126160952410     -0.08231583217754     -2.41829651119701
  C           7.55476968784930     -0.11195510901820     -1.59706835276337
  C           5.85410333970758      0.34604741814378     -3.34631012356215
  C           7.16398328776974     -0.37065389095318     -3.04611976339270
  H           5.76106801892741     -2.43165222297440      0.28109892539678
  H           6.30613696669499     -2.60791249718106     -1.39432341253220
  H           7.48171405233557     -2.41667226066170     -0.09559242708193
  C           4.18863021853073     -1.47533911783808     -2.84283694083046
  H           3.84299225836997     -1.43289138447215     -3.88107435249236
  H           4.95376492783972     -2.25103576059152     -2.78437096622690
  H           3.33754172481638     -1.78543929225407     -2.23228534951979
  C           3.54216077357866      0.90373340435778     -2.63217325760774
  H           2.65374885396262      0.61140303597481     -2.06547330683721
  H           3.81140120470991      1.92090824019688     -2.33735627402663
  H           3.27357201861138      0.91695976042545     -3.69309058462436
  H           5.44708150251089      2.96921645209193      1.13245876208795
