70
	Energy:    5338.8193773
C         -1.89914       -2.30666        0.19371
C         -0.57022       -1.91307        0.04808
C         -0.16344       -0.59139        0.24530
C         -1.14925        0.35810        0.58873
C         -2.48644       -0.05537        0.74198
C         -2.85343       -1.36404        0.54978
H         -2.17912       -3.34493        0.04544
H          0.17903       -2.66443       -0.18723
H         -3.27123        0.64445        0.99437
H         -3.88773       -1.66112        0.66800
B          1.37187       -0.17509        0.17727
H          2.01474       -1.23252       -0.14771
C          1.97914        0.27916        1.68539
C          1.28286        0.12908        2.87905
C          1.53566        1.12983        3.83227
H          0.60253       -0.72219        3.09559
C          2.42714        2.06488        3.35972
H          1.08801        1.16890        4.81690
H          2.79238        2.93939        3.88215
B          2.67390       -1.19925        1.06200
O          4.04852       -1.10868        0.83061
O          2.32721       -2.38892        1.71466
C          4.60075       -2.38706        1.18495
C          3.55987       -2.91706        2.22921
C          4.65022       -3.24246       -0.08318
H          5.21211       -2.70261       -0.84930
H          5.14165       -4.20299        0.09610
H          3.64457       -3.43341       -0.46870
C          6.00269       -2.17511        1.73723
H          6.66426       -1.81825        0.94362
H          6.00290       -1.43267        2.53667
H          6.41074       -3.11407        2.12529
C          3.77786       -2.32926        3.62679
H          2.90083       -2.55041        4.24077
H          4.65844       -2.76071        4.11111
H          3.89960       -1.24295        3.58484
C          3.44517       -4.43206        2.30445
H          4.40309       -4.87749        2.59144
H          2.70077       -4.71002        3.05495
H          3.13432       -4.85303        1.34698
N         -0.92478        1.81128        0.72715
S          2.95015        1.72588        1.77750
H          1.77890        0.59898       -0.64393
C         -1.60458        2.54901        1.86020
C         -0.70828        2.61776       -0.54456
C         -2.97195        3.17813        1.40377
C         -0.68114        3.68791        2.38395
C         -1.87789        1.69493        3.14131
C         -3.09421        3.36292       -0.11589
H         -3.10505        4.15437        1.92112
H         -3.85931        2.58773        1.71600
C         -1.75457        3.78917       -0.67911
C         -0.87849        1.74270       -1.82762
C          0.69100        3.28725       -0.62471
H         -1.84721        4.11223       -1.73951
H         -1.46586        4.71269       -0.14428
H         -3.89489        4.10413       -0.32673
H         -3.38893        2.41181       -0.60419
H         -0.75771        2.35574       -2.74705
H         -1.88100        1.26988       -1.87340
H         -0.11857        0.94572       -1.90257
H          0.77547        3.88087       -1.56114
H          1.53112        2.59576       -0.63316
H          0.89480        3.98211        0.20420
H         -0.50219        4.51192        1.68604
H          0.29566        3.28706        2.68808
H         -1.12868        4.18853        3.27054
H         -2.60371        0.87460        3.02774
H         -2.31383        2.32982        3.94361
H         -0.96310        1.25097        3.54224
