70
	Energy:    6439.3565098
C         -2.05648       -2.08167        0.88775
C         -0.71542       -1.70910        0.93465
C         -0.28417       -0.42133        0.59502
C         -1.26942        0.52424        0.22842
C         -2.61511        0.14482        0.17402
C         -3.00707       -1.15097        0.49263
H         -2.34916       -3.09576        1.14203
H          0.02192       -2.45472        1.21885
H         -3.36878        0.87022       -0.11327
H         -4.05730       -1.42268        0.44034
B          1.26450       -0.02546        0.55324
H          1.77671       -1.14041       -0.06933
C          1.99846        0.25456        1.96532
C          1.62154       -0.15576        3.22695
C          2.29477        0.51051        4.28187
H          0.87672       -0.92962        3.37197
C          3.18118        1.44486        3.81584
H          2.12660        0.31592        5.33382
H          3.81495        2.09868        4.39930
H          1.62131        0.73753       -0.30016
B          2.59844       -1.50111        0.82102
O          3.91459       -1.36673        0.48573
O          2.30659       -2.62546        1.54984
C          4.63314       -2.30159        1.32579
C          3.53597       -3.38385        1.63830
C          5.83075       -2.82008        0.54378
H          6.53511       -2.00357        0.36766
H          6.34785       -3.60057        1.11085
H          5.53380       -3.22754       -0.42357
C          5.10362       -1.54319        2.56676
H          5.69863       -0.68425        2.24865
H          4.26368       -1.17124        3.15863
H          5.72436       -2.18025        3.20292
C          3.62860       -3.99703        3.02758
H          2.83537       -4.73763        3.15694
H          4.59101       -4.50098        3.16019
H          3.51802       -3.23896        3.80436
C          3.44580       -4.47859        0.57560
H          4.30831       -5.14956        0.61422
H          2.54119       -5.06516        0.75236
H          3.38027       -4.04842       -0.42733
N         -1.02465        1.92826       -0.09427
C         -1.31667        2.41937       -1.49087
C         -0.97285        2.94081        1.01483
S          3.19525        1.51044        2.10425
C          0.00008        4.08196        0.59876
C         -0.43110        2.37079        2.34036
C         -2.36944        3.48648        1.42288
C         -0.31989        4.66000       -0.77989
H          1.03103        3.66503        0.52805
H          0.01951        4.89217        1.36019
C         -0.29370        3.53243       -1.82629
H          0.44637        5.41993       -1.04484
H         -1.29481        5.18435       -0.75772
H          0.72897        3.09636       -1.83943
H         -0.49236        3.95795       -2.83572
C         -2.75396        2.99648       -1.75358
C         -1.14422        1.28077       -2.52728
H         -1.28143        1.66635       -3.56201
H         -1.90569        0.48481       -2.38384
H         -0.13507        0.82852       -2.45510
H         -2.85199        3.26882       -2.82604
H         -3.00075        3.94409       -1.27057
H         -3.58007        2.29266       -1.57083
H          0.61447        2.14927        2.22082
H         -0.99874        1.48536        2.69614
H         -0.43948        3.13130        3.15189
H         -2.87560        4.12301        0.70240
H         -2.27551        4.16122        2.30346
H         -3.04434        2.65355        1.71305
