54
Coordinates from ORCA-job input_IRC_F E -914.910651102379
  C      -1.323030     -2.052482      0.537624
  C      -0.024882     -1.672420      0.946487
  C       1.000074     -2.611718      0.727829
  C       0.778977     -3.859898      0.156341
  C      -0.511928     -4.215630     -0.227232
  C      -1.549849     -3.312348     -0.034685
  H       2.012031     -2.342249      1.023631
  H       1.604739     -4.551481      0.011841
  H      -0.712297     -5.185764     -0.672918
  H      -2.549802     -3.602156     -0.327885
  H      -1.446530      0.236236      1.072051
  B       0.381220     -0.294272      1.702977
  N      -2.427033     -1.114062      0.727120
  C      -3.266390     -1.384906      1.965366
  C      -3.168219     -0.692643     -0.524212
  C      -4.210416     -0.189782      2.207867
  C      -2.351470     -1.512079      3.190818
  C      -4.100453     -2.682923      1.921459
  C      -4.033385      0.526659     -0.151691
  C      -4.048496     -1.768738     -1.202677
  C      -2.175340     -0.234890     -1.599554
  H      -4.879667     -0.455255      3.033849
  H      -3.619572      0.668688      2.544146
  C      -5.006049      0.231727      0.979742
  H      -1.710980     -2.396148      3.135073
  H      -1.707060     -0.645428      3.322798
  H      -2.976580     -1.605681      4.084595
  H      -3.503701     -3.542429      1.610805
  H      -4.461004     -2.892697      2.933681
  H      -4.983278     -2.616779      1.284939
  H      -4.562037      0.863049     -1.050495
  H      -3.369294      1.346370      0.153428
  H      -4.733041     -1.268215     -1.896290
  H      -3.444209     -2.455619     -1.799522
  H      -4.653599     -2.356938     -0.518063
  H      -1.701288      0.704745     -1.325728
  H      -1.407650     -0.986839     -1.799394
  H      -2.721218     -0.063538     -2.532766
  H      -5.600219      1.122570      1.210953
  H      -5.715808     -0.549192      0.680780
  H       1.504757      0.058783      1.380475
  C      -0.661253      0.987974      1.327527
  C      -1.273818      1.898563      2.233820
  C      -1.323085      3.165089      1.676881
  H      -1.686004      1.602260      3.189091
  H      -1.752485      4.062764      2.098349
  H       0.334811     -0.441029      2.909317
  C      -0.692048      3.063675      0.429195
  H      -0.483510      3.836943     -0.299773
  N      -0.309392      1.805739      0.220388
  C       0.604354      1.402527     -0.836548
  H       0.360238      1.939664     -1.755477
  H       1.632218      1.623939     -0.537834
  H       0.520826      0.330786     -1.004960
54
Coordinates from ORCA-job input_IRC_F E -914.912352193585
  C      -1.323855     -2.053748      0.537188
  C      -0.026601     -1.671050      0.945371
  C       0.998276     -2.610929      0.727077
  C       0.778804     -3.858764      0.157191
  C      -0.511180     -4.215267     -0.227674
  C      -1.548807     -3.313370     -0.034578
  H       2.010514     -2.341350      1.023572
  H       1.603817     -4.550475      0.011969
  H      -0.712030     -5.185036     -0.672499
  H      -2.550176     -3.602093     -0.327958
  H      -1.465858      0.213042      1.063970
  B       0.390609     -0.297824      1.707094
  N      -2.435938     -1.123253      0.724752
  C      -3.267283     -1.386870      1.962533
  C      -3.169161     -0.695976     -0.522240
  C      -4.210120     -0.191076      2.207231
  C      -2.351733     -1.512299      3.190040
  C      -4.101863     -2.684091      1.922968
  C      -4.033167      0.525086     -0.151979
  C      -4.049901     -1.768763     -1.204724
  C      -2.175655     -0.235548     -1.599125
  H      -4.879601     -0.454965      3.034413
  H      -3.619648      0.668200      2.544091
  C      -5.005695      0.231970      0.979776
  H      -1.710781     -2.395339      3.134192
  H      -1.705735     -0.646136      3.322015
  H      -2.977320     -1.605716      4.084171
  H      -3.503272     -3.541734      1.610861
  H      -4.461587     -2.893056      2.934464
  H      -4.983631     -2.617103      1.285097
  H      -4.562127      0.863205     -1.050874
  H      -3.369918      1.346313      0.152941
  H      -4.733662     -1.267873     -1.897268
  H      -3.443820     -2.455914     -1.798689
  H      -4.653749     -2.356802     -0.518749
  H      -1.701299      0.704844     -1.325048
  H      -1.407991     -0.987450     -1.798190
  H      -2.721819     -0.063466     -2.532600
  H      -5.601006      1.122066      1.210775
  H      -5.716194     -0.548715      0.681275
  H       1.505908      0.059211      1.380526
  C      -0.639122      1.006827      1.335280
  C      -1.271783      1.905352      2.237317
  C      -1.321989      3.170416      1.676117
  H      -1.685541      1.602242      3.188265
  H      -1.752270      4.063174      2.097873
  H       0.334918     -0.439674      2.909712
  C      -0.691905      3.069444      0.430881
  H      -0.483563      3.836730     -0.298670
  N      -0.305833      1.809991      0.218259
  C       0.605495      1.402769     -0.837513
  H       0.359998      1.940060     -1.755854
  H       1.632318      1.622971     -0.537782
  H       0.520411      0.330332     -1.003707
54
Coordinates from ORCA-job input_IRC_F E -914.912457128398
  C      -1.323932     -2.054213      0.537124
  C      -0.026845     -1.670899      0.945266
  C       0.997832     -2.610727      0.726826
  C       0.778213     -3.858325      0.157239
  C      -0.510794     -4.215006     -0.227623
  C      -1.548648     -3.313873     -0.034717
  H       2.009942     -2.340948      1.023562
  H       1.603850     -4.550285      0.012040
  H      -0.711928     -5.185130     -0.672523
  H      -2.550251     -3.602176     -0.327984
  H      -1.465702      0.211475      1.064181
  B       0.391525     -0.297890      1.707420
  N      -2.436377     -1.123952      0.724520
  C      -3.267795     -1.387388      1.962694
  C      -3.169669     -0.696352     -0.522656
  C      -4.210328     -0.191303      2.207161
  C      -2.351942     -1.512435      3.189795
  C      -4.102356     -2.684486      1.923356
  C      -4.033402      0.524826     -0.152071
  C      -4.050360     -1.768873     -1.205311
  C      -2.175935     -0.235787     -1.599001
  H      -4.879456     -0.454909      3.034429
  H      -3.619571      0.667889      2.543990
  C      -5.005724      0.231950      0.979794
  H      -1.710697     -2.395234      3.133890
  H      -1.705437     -0.646358      3.321602
  H      -2.977388     -1.605683      4.083738
  H      -3.503172     -3.541699      1.610924
  H      -4.461832     -2.893246      2.934774
  H      -4.983886     -2.617318      1.285155
  H      -4.562030      0.863060     -1.050860
  H      -3.370037      1.346113      0.152753
  H      -4.733870     -1.267809     -1.897674
  H      -3.443737     -2.456087     -1.798568
  H      -4.654030     -2.356885     -0.518986
  H      -1.701414      0.704678     -1.324698
  H      -1.408088     -0.987673     -1.797821
  H      -2.721880     -0.063553     -2.532226
  H      -5.601186      1.121935      1.210731
  H      -5.716389     -0.548640      0.681405
  H       1.507268      0.059110      1.380488
  C      -0.640550      1.005461      1.335226
  C      -1.269710      1.906375      2.236624
  C      -1.321553      3.171244      1.676228
  H      -1.685270      1.602532      3.188317
  H      -1.752791      4.064614      2.097972
  H       0.335226     -0.439497      2.910417
  C      -0.691402      3.069768      0.431110
  H      -0.483559      3.838185     -0.299376
  N      -0.304811      1.811515      0.219740
  C       0.605761      1.403223     -0.837524
  H       0.360077      1.940142     -1.756115
  H       1.632754      1.622663     -0.538004
  H       0.520164      0.330399     -1.003215
54
Coordinates from ORCA-job input_IRC_F E -914.912550682964
  C      -1.324198     -2.054802      0.537032
  C      -0.027196     -1.670667      0.945183
  C       0.997222     -2.610299      0.726523
  C       0.777926     -3.857898      0.157271
  C      -0.510574     -4.215016     -0.227763
  C      -1.548560     -3.314402     -0.034868
  H       2.009077     -2.340302      1.023533
  H       1.603740     -4.549814      0.012195
  H      -0.711675     -5.185203     -0.672523
  H      -2.550334     -3.602371     -0.328036
  H      -1.465598      0.209122      1.064363
  B       0.392883     -0.297995      1.707957
  N      -2.437192     -1.125129      0.724191
  C      -3.268485     -1.388083      1.962745
  C      -3.170366     -0.696931     -0.523063
  C      -4.210538     -0.191622      2.207040
  C      -2.352128     -1.512607      3.189353
  C      -4.103041     -2.685078      1.923845
  C      -4.033692      0.524421     -0.152171
  C      -4.051025     -1.769100     -1.206079
  C      -2.176237     -0.236138     -1.598709
  H      -4.879330     -0.454840      3.034528
  H      -3.619430      0.667361      2.543804
  C      -5.005873      0.231861      0.979804
  H      -1.710595     -2.395130      3.133402
  H      -1.705076     -0.646757      3.320891
  H      -2.977520     -1.605645      4.083171
  H      -3.503090     -3.541673      1.611077
  H      -4.462287     -2.893624      2.935338
  H      -4.984325     -2.617714      1.285285
  H      -4.561977      0.862851     -1.050922
  H      -3.370227      1.345726      0.152449
  H      -4.734261     -1.267736     -1.898427
  H      -3.443658     -2.456388     -1.798450
  H      -4.654522     -2.357002     -0.519439
  H      -1.701652      0.704327     -1.324116
  H      -1.408283     -0.988022     -1.797236
  H      -2.722020     -0.063676     -2.531777
  H      -5.601459      1.121754      1.210673
  H      -5.716727     -0.548552      0.681601
  H       1.509221      0.058891      1.380497
  C      -0.641779      1.004593      1.334984
  C      -1.267594      1.907587      2.236679
  C      -1.320842      3.172821      1.676631
  H      -1.684540      1.603279      3.187945
  H      -1.753351      4.066436      2.097962
  H       0.335792     -0.439216      2.911392
  C      -0.690442      3.071110      0.431224
  H      -0.483596      3.839949     -0.300019
  N      -0.303158      1.812808      0.221112
  C       0.606047      1.403857     -0.837358
  H       0.360214      1.940273     -1.756405
  H       1.633479      1.622197     -0.538428
  H       0.519731      0.330727     -1.002352
54
Coordinates from ORCA-job input_IRC_F E -914.912617764733
  C      -1.324495     -2.055220      0.536985
  C      -0.027559     -1.670446      0.945176
  C       0.996741     -2.609951      0.726263
  C       0.777658     -3.857553      0.157227
  C      -0.510373     -4.215050     -0.227883
  C      -1.548553     -3.314834     -0.035005
  H       2.008330     -2.339642      1.023506
  H       1.603708     -4.549358      0.012353
  H      -0.711400     -5.185376     -0.672571
  H      -2.550417     -3.602613     -0.328099
  H      -1.465411      0.207181      1.064483
  B       0.394023     -0.298049      1.708441
  N      -2.437982     -1.126160      0.723934
  C      -3.269068     -1.388668      1.962703
  C      -3.170968     -0.697461     -0.523311
  C      -4.210717     -0.191921      2.206934
  C      -2.352262     -1.512791      3.188907
  C      -4.103648     -2.685602      1.924267
  C      -4.033975      0.524030     -0.152263
  C      -4.051616     -1.769320     -1.206732
  C      -2.176495     -0.236482     -1.598400
  H      -4.879271     -0.454789      3.034654
  H      -3.619248      0.666845      2.543598
  C      -5.006075      0.231744      0.979809
  H      -1.710522     -2.395115      3.132917
  H      -1.704806     -0.647127      3.320140
  H      -2.977625     -1.605617      4.082688
  H      -3.503088     -3.541713      1.611275
  H      -4.462762     -2.894046      2.935867
  H      -4.984780     -2.618165      1.285452
  H      -4.562003      0.862640     -1.051028
  H      -3.370387      1.345304      0.152166
  H      -4.734633     -1.267738     -1.899207
  H      -3.443658     -2.456699     -1.798407
  H      -4.655078     -2.357128     -0.519937
  H      -1.701910      0.703945     -1.323498
  H      -1.408489     -0.988375     -1.796678
  H      -2.722153     -0.063794     -2.531416
  H      -5.601708      1.121602      1.210631
  H      -5.717101     -0.548522      0.681773
  H       1.510865      0.058603      1.380583
  C      -0.642302      1.004600      1.334872
  C      -1.266141      1.908782      2.236607
  C      -1.319925      3.174130      1.676997
  H      -1.683814      1.604074      3.187766
  H      -1.753694      4.067957      2.097885
  H       0.336413     -0.438939      2.912184
  C      -0.689414      3.072179      0.431561
  H      -0.483571      3.841439     -0.300440
  N      -0.302011      1.814083      0.221956
  C       0.606395      1.404333     -0.837219
  H       0.360365      1.940383     -1.756534
  H       1.634196      1.621769     -0.538912
  H       0.519290      0.331162     -1.001488
