54
Coordinates from ORCA-job input_IRC_B E -914.918898822233
  H       1.118135     -4.660252      1.574444
  C       0.655654     -3.706999      1.334366
  C       1.446369     -2.597551      1.063138
  C      -0.728920     -3.588536      1.293160
  C       0.896677     -1.347278      0.750937
  H       2.528676     -2.698552      1.082449
  C      -1.302508     -2.363570      0.975504
  H      -1.364313     -4.443705      1.504624
  C      -0.507612     -1.245093      0.703353
  H      -2.382438     -2.279198      0.940238
  B       1.925267     -0.142201      0.494604
  H      -0.917580      2.723876      0.936596
  H      -2.422596      2.795442      1.846491
  H      -2.411938      1.680988     -2.315847
  H      -0.910059      2.066617     -1.482582
  H      -2.742614      3.433199     -0.556359
  H      -3.679908      2.001653     -0.174729
  N      -1.087527      0.036980      0.356822
  C      -0.707665      0.801436      2.670299
  H      -0.572724     -0.197007      3.092917
  H       0.274268      1.176282      2.370797
  H      -1.089850      1.455598      3.459840
  C      -3.029789      0.230528      2.040561
  C      -1.701279      0.796869      1.498675
  C      -1.704845      0.119847     -1.011638
  C      -1.904836      2.253994      1.046710
  C      -1.900335      1.609130     -1.349644
  C      -2.654590      2.378802     -0.273204
  H      -2.914245     -0.800234      2.381821
  H      -3.844786      0.266470      1.316640
  H      -3.338333      0.825027      2.906547
  C      -3.037291     -0.635248     -1.197408
  H      -3.372758     -0.506183     -2.231369
  H      -2.912744     -1.707216     -1.031514
  H      -3.837433     -0.277380     -0.548557
  C      -0.714566     -0.468767     -2.028009
  H       0.274691     -0.006525     -1.966399
  H      -1.098363     -0.301150     -3.038925
  H      -0.588440     -1.545625     -1.891424
  H       2.367965      0.361302      1.512750
  H       0.532751      0.619262      0.182149
  H       1.287714      0.949990      0.094678
  C       4.462898      1.570685     -0.078984
  N       4.054862      0.458447     -0.909226
  C       2.943207     -0.339326     -0.698688
  C       2.927708     -1.260315     -1.734050
  C       4.036941     -1.013269     -2.579414
  C       4.709592      0.057519     -2.040130
  H       3.715700      2.371136     -0.089296
  H       5.402366      1.972920     -0.462523
  H       4.614061      1.251449      0.955204
  H       2.184714     -2.038864     -1.851684
  H       4.317242     -1.555725     -3.471809
  H       5.607739      0.564166     -2.367182
54
Coordinates from ORCA-job input_IRC_B E -914.920567819414
  H       1.117997     -4.660470      1.574449
  C       0.654093     -3.708777      1.334643
  C       1.448475     -2.602512      1.064981
  C      -0.728194     -3.589754      1.293304
  C       0.896220     -1.357378      0.755341
  H       2.528381     -2.698672      1.082590
  C      -1.304834     -2.365331      0.975994
  H      -1.364359     -4.443936      1.504558
  C      -0.505135     -1.251196      0.705159
  H      -2.383100     -2.279437      0.940173
  B       1.929461     -0.164877      0.506624
  H      -0.917373      2.723923      0.936591
  H      -2.422462      2.795298      1.846393
  H      -2.411746      1.680964     -2.315707
  H      -0.909949      2.066701     -1.482539
  H      -2.742498      3.433137     -0.556341
  H      -3.679764      2.001690     -0.174758
  N      -1.071430      0.038539      0.356274
  C      -0.707386      0.801859      2.671425
  H      -0.572764     -0.197135      3.093041
  H       0.274193      1.176475      2.370925
  H      -1.089977      1.455631      3.460177
  C      -3.028362      0.229993      2.038898
  C      -1.698274      0.798110      1.499414
  C      -1.701452      0.120730     -1.013144
  C      -1.903954      2.254651      1.046525
  C      -1.899367      1.609854     -1.349901
  C      -2.654081      2.378689     -0.273222
  H      -2.914081     -0.800455      2.381704
  H      -3.844655      0.266443      1.316444
  H      -3.337674      0.824667      2.905631
  C      -3.035700     -0.634859     -1.195755
  H      -3.372045     -0.506032     -2.230439
  H      -2.912534     -1.707343     -1.031329
  H      -3.837304     -0.277291     -0.548413
  C      -0.713933     -0.468860     -2.029253
  H       0.274757     -0.006278     -1.966267
  H      -1.098441     -0.301279     -3.039205
  H      -0.588434     -1.545756     -1.891462
  H       2.364239      0.357782      1.508287
  H       0.520067      0.622130      0.181541
  H       1.275835      0.995402      0.080386
  C       4.462422      1.570647     -0.079117
  N       4.052264      0.459462     -0.909719
  C       2.938800     -0.338844     -0.698918
  C       2.927341     -1.259676     -1.734656
  C       4.037506     -1.013796     -2.579060
  C       4.709674      0.056788     -2.039367
  H       3.715551      2.371011     -0.089204
  H       5.402256      1.972665     -0.462410
  H       4.613847      1.251296      0.955120
  H       2.184714     -2.038948     -1.851851
  H       4.317444     -1.555931     -3.471844
  H       5.608028      0.564129     -2.366993
54
Coordinates from ORCA-job input_IRC_B E -914.920740137850
  H       1.117945     -4.661824      1.574722
  C       0.653723     -3.710426      1.335056
  C       1.448599     -2.604331      1.065673
  C      -0.728463     -3.590330      1.293416
  C       0.896569     -1.358121      0.755796
  H       2.529272     -2.699591      1.082884
  C      -1.305194     -2.365828      0.976072
  H      -1.364629     -4.444561      1.504657
  C      -0.505162     -1.251308      0.705373
  H      -2.383516     -2.279674      0.940160
  B       1.928425     -0.162248      0.504251
  H      -0.917089      2.724258      0.936522
  H      -2.422321      2.795162      1.846358
  H      -2.411592      1.680884     -2.315641
  H      -0.909636      2.067080     -1.482644
  H      -2.742425      3.433088     -0.556331
  H      -3.679571      2.001675     -0.174765
  N      -1.071320      0.038290      0.356365
  C      -0.707018      0.801933      2.671770
  H      -0.572754     -0.197112      3.093163
  H       0.274406      1.176621      2.371143
  H      -1.090050      1.455774      3.460570
  C      -3.027570      0.229802      2.038306
  C      -1.697202      0.797656      1.498848
  C      -1.700390      0.120581     -1.012441
  C      -1.903495      2.254455      1.046447
  C      -1.898894      1.609728     -1.349749
  C      -2.653908      2.378639     -0.273210
  H      -2.913941     -0.800513      2.381541
  H      -3.844340      0.266418      1.316256
  H      -3.337116      0.824454      2.904978
  C      -3.034870     -0.634731     -1.195169
  H      -3.371453     -0.505899     -2.229778
  H      -2.912350     -1.707274     -1.031167
  H      -3.836943     -0.277212     -0.548277
  C      -0.713483     -0.468933     -2.029577
  H       0.275055     -0.006235     -1.966423
  H      -1.098462     -0.301341     -3.039623
  H      -0.588383     -1.545778     -1.891571
  H       2.364082      0.356743      1.509051
  H       0.520240      0.627538      0.180233
  H       1.270344      0.999039      0.079563
  C       4.462047      1.570567     -0.079060
  N       4.051594      0.459426     -0.909704
  C       2.938735     -0.339421     -0.698746
  C       2.927039     -1.259869     -1.735051
  C       4.037342     -1.013972     -2.578809
  C       4.709268      0.056886     -2.038811
  H       3.715441      2.371113     -0.089095
  H       5.402079      1.972460     -0.462422
  H       4.613731      1.251201      0.955080
  H       2.184687     -2.039122     -1.852026
  H       4.317528     -1.555989     -3.471769
  H       5.607696      0.564015     -2.366675
54
Coordinates from ORCA-job input_IRC_B E -914.920859965483
  H       1.117776     -4.663056      1.574968
  C       0.653979     -3.711475      1.335357
  C       1.448379     -2.605380      1.066134
  C      -0.729077     -3.590780      1.293492
  C       0.897120     -1.358691      0.756022
  H       2.529912     -2.700507      1.083177
  C      -1.305096     -2.366268      0.976178
  H      -1.364896     -4.445112      1.504734
  C      -0.505335     -1.251681      0.705599
  H      -2.383885     -2.279913      0.940150
  B       1.927587     -0.160896      0.503013
  H      -0.916854      2.724549      0.936461
  H      -2.422136      2.794964      1.846302
  H      -2.411392      1.680757     -2.315517
  H      -0.909385      2.067402     -1.482732
  H      -2.742337      3.433031     -0.556318
  H      -3.679368      2.001643     -0.174767
  N      -1.071132      0.037985      0.356476
  C      -0.706745      0.801999      2.672000
  H      -0.572700     -0.197093      3.093300
  H       0.274648      1.176752      2.371397
  H      -1.090088      1.455842      3.460815
  C      -3.026975      0.229646      2.037856
  C      -1.696532      0.797409      1.498577
  C      -1.699701      0.120488     -1.012084
  C      -1.903101      2.254337      1.046376
  C      -1.898483      1.609670     -1.349640
  C      -2.653693      2.378577     -0.273199
  H      -2.913771     -0.800591      2.381364
  H      -3.843986      0.266388      1.316055
  H      -3.336587      0.824295      2.904414
  C      -3.034238     -0.634643     -1.194722
  H      -3.370892     -0.505761     -2.229226
  H      -2.912138     -1.707232     -1.030983
  H      -3.836553     -0.277128     -0.548117
  C      -0.713144     -0.468966     -2.029794
  H       0.275358     -0.006226     -1.966620
  H      -1.098442     -0.301392     -3.039866
  H      -0.588288     -1.545813     -1.891691
  H       2.363716      0.355970      1.509274
  H       0.519330      0.631695      0.179208
  H       1.266791      1.002766      0.078713
  C       4.461746      1.570526     -0.078998
  N       4.051120      0.459404     -0.909707
  C       2.938392     -0.339532     -0.698741
  C       2.926780     -1.260056     -1.735271
  C       4.037233     -1.014157     -2.578677
  C       4.709001      0.056946     -2.038453
  H       3.715329      2.371203     -0.088989
  H       5.401872      1.972250     -0.462436
  H       4.613602      1.251107      0.955058
  H       2.184614     -2.039309     -1.852211
  H       4.317602     -1.556013     -3.471640
  H       5.607372      0.563909     -2.366349
54
Coordinates from ORCA-job input_IRC_B E -914.921075106193
  H       1.117228     -4.665775      1.575506
  C       0.654403     -3.713525      1.336004
  C       1.448186     -2.607186      1.066991
  C      -0.730152     -3.591964      1.293712
  C       0.898018     -1.359697      0.756249
  H       2.530882     -2.702711      1.083898
  C      -1.304861     -2.367252      0.976455
  H      -1.365567     -4.446368      1.504887
  C      -0.505458     -1.252681      0.706092
  H      -2.384482     -2.280530      0.940144
  B       1.925874     -0.158914      0.501094
  H      -0.916317      2.725199      0.936324
  H      -2.421625      2.794420      1.846165
  H      -2.410838      1.680386     -2.315168
  H      -0.908814      2.068119     -1.482926
  H      -2.742086      3.432878     -0.556283
  H      -3.678830      2.001528     -0.174762
  N      -1.070627      0.037218      0.356745
  C      -0.706170      0.802141      2.672437
  H      -0.572503     -0.197041      3.093658
  H       0.275259      1.177044      2.372078
  H      -1.090134      1.455922      3.461237
  C      -3.025759      0.229309      2.036934
  C      -1.695289      0.797001      1.498202
  C      -1.698389      0.120312     -1.011551
  C      -1.902224      2.254120      1.046216
  C      -1.897563      1.609576     -1.349414
  C      -2.653110      2.378420     -0.273172
  H      -2.913291     -0.800820      2.380898
  H      -3.843061      0.266307      1.315507
  H      -3.335346      0.824001      2.903202
  C      -3.032924     -0.634475     -1.193803
  H      -3.369570     -0.505418     -2.228066
  H      -2.911557     -1.707165     -1.030486
  H      -3.835548     -0.276902     -0.547666
  C      -0.712422     -0.469011     -2.030201
  H       0.276098     -0.006261     -1.967164
  H      -1.098335     -0.301501     -3.040249
  H      -0.587986     -1.545904     -1.892001
  H       2.362586      0.354507      1.509260
  H       0.515882      0.640540      0.177009
  H       1.260258      1.011608      0.076751
  C       4.461081      1.570432     -0.078882
  N       4.050094      0.459443     -0.909691
  C       2.937270     -0.339352     -0.699024
  C       2.926183     -1.260376     -1.735574
  C       4.037012     -1.014553     -2.578373
  C       4.708386      0.056925     -2.037792
  H       3.715034      2.371414     -0.088725
  H       5.401334      1.971745     -0.462471
  H       4.613255      1.250869      0.955038
  H       2.184364     -2.039784     -1.852676
  H       4.317788     -1.556074     -3.471293
  H       5.606668      0.563700     -2.365562
54
Coordinates from ORCA-job input_IRC_B E -914.921287779831
  H       1.116199     -4.668647      1.576067
  C       0.654169     -3.715304      1.336705
  C       1.448845     -2.608557      1.067669
  C      -0.730369     -3.593838      1.294121
  C       0.897933     -1.360269      0.755927
  H       2.530873     -2.705560      1.084882
  C      -1.304760     -2.368275      0.976819
  H      -1.366452     -4.447863      1.505007
  C      -0.504942     -1.254179      0.706590
  H      -2.384519     -2.281488      0.940194
  B       1.924292     -0.158386      0.500171
  H      -0.915644      2.725939      0.936174
  H      -2.420822      2.793601      1.846028
  H      -2.409964      1.679769     -2.314668
  H      -0.908105      2.068924     -1.483152
  H      -2.741637      3.432640     -0.556230
  H      -3.677978      2.001279     -0.174733
  N      -1.069900      0.036298      0.357059
  C      -0.705514      0.802259      2.672822
  H      -0.572088     -0.196935      3.094185
  H       0.276105      1.177370      2.373140
  H      -1.090107      1.455860      3.461472
  C      -3.024546      0.228931      2.036057
  C      -1.694221      0.796739      1.498150
  C      -1.697198      0.120133     -1.011348
  C      -1.901184      2.253925      1.046022
  C      -1.896455      1.609525     -1.349163
  C      -2.652238      2.378217     -0.273141
  H      -2.912474     -0.801211      2.380175
  H      -3.841679      0.266175      1.314606
  H      -3.333817      0.823819      2.901971
  C      -3.031589     -0.634368     -1.192906
  H      -3.367920     -0.504951     -2.226954
  H      -2.910597     -1.707127     -1.029698
  H      -3.834064     -0.276539     -0.546892
  C      -0.711594     -0.469044     -2.030506
  H       0.277083     -0.006442     -1.968028
  H      -1.098076     -0.301611     -3.040364
  H      -0.587413     -1.546022     -1.892470
  H       2.360637      0.353541      1.508338
  H       0.509327      0.650362      0.174552
  H       1.254963      1.022212      0.074619
  C       4.460277      1.570294     -0.078801
  N       4.048782      0.459744     -0.909605
  C       2.935255     -0.338449     -0.700049
  C       2.925412     -1.260363     -1.735536
  C       4.036681     -1.015067     -2.577930
  C       4.707663      0.056636     -2.037240
  H       3.714574      2.371667     -0.088346
  H       5.400560      1.971088     -0.462528
  H       4.612689      1.250517      0.955079
  H       2.183875     -2.040434     -1.853319
  H       4.318057     -1.556211     -3.470756
  H       5.605921      0.563519     -2.364516
54
Coordinates from ORCA-job input_IRC_B E -914.921433313854
  H       1.115048     -4.670378      1.576444
  C       0.653907     -3.716617      1.337266
  C       1.448127     -2.610199      1.068096
  C      -0.730447     -3.595104      1.294469
  C       0.898175     -1.361265      0.755623
  H       2.530980     -2.708115      1.085856
  C      -1.304840     -2.369737      0.977231
  H      -1.367018     -4.449228      1.505046
  C      -0.504995     -1.254647      0.706589
  H      -2.384116     -2.282667      0.940346
  B       1.922878     -0.157302      0.498194
  H      -0.914917      2.726472      0.936104
  H      -2.419999      2.792914      1.846126
  H      -2.409048      1.679128     -2.314428
  H      -0.907307      2.069506     -1.483340
  H      -2.740992      3.432408     -0.556178
  H      -3.676931      2.000887     -0.174681
  N      -1.069320      0.035693      0.357213
  C      -0.704727      0.802212      2.673198
  H      -0.571511     -0.196809      3.094754
  H       0.276925      1.177615      2.374294
  H      -1.090075      1.455794      3.461647
  C      -3.023364      0.228581      2.035429
  C      -1.692838      0.796291      1.497827
  C      -1.695769      0.119939     -1.010845
  C      -1.900065      2.253635      1.045901
  C      -1.895277      1.609359     -1.348911
  C      -2.651385      2.378016     -0.273097
  H      -2.911437     -0.801601      2.379325
  H      -3.840186      0.266036      1.313503
  H      -3.332559      0.823774      2.901207
  C      -3.030256     -0.634330     -1.192221
  H      -3.366493     -0.504579     -2.226302
  H      -2.909412     -1.707044     -1.028808
  H      -3.832443     -0.276102     -0.545939
  C      -0.710620     -0.469204     -2.030742
  H       0.278055     -0.006737     -1.968940
  H      -1.097784     -0.301669     -3.040408
  H      -0.586646     -1.546138     -1.892960
  H       2.358737      0.353749      1.507682
  H       0.503777      0.660525      0.172105
  H       1.248835      1.028867      0.073892
  C       4.459256      1.570240     -0.078587
  N       4.047061      0.460136     -0.910066
  C       2.933214     -0.337512     -0.700733
  C       2.924204     -1.260337     -1.736117
  C       4.036172     -1.015624     -2.577221
  C       4.706970      0.056529     -2.036371
  H       3.714035      2.371888     -0.087880
  H       5.399804      1.970509     -0.462614
  H       4.611932      1.250103      0.955098
  H       2.183397     -2.040733     -1.853843
  H       4.318309     -1.556589     -3.470071
  H       5.605285      0.563302     -2.363443
