74
Coordinates from ORCA-job input_IRC_F E -1325.522350793664
  C      -0.513869      1.937443      1.835735
  C      -0.762920      0.561771      2.056194
  C      -1.441309      0.230946      3.236509
  C      -1.868982      1.192582      4.154106
  C      -1.633160      2.540742      3.910729
  C      -0.955068      2.901671      2.751000
  H      -1.655354     -0.812726      3.450613
  H      -2.393847      0.882158      5.054690
  H      -1.967665      3.302401      4.612809
  H      -0.757756      3.952382      2.546043
  N       0.206286      2.321656      0.647361
  C      -0.581511      2.911277     -0.470937
  C       1.612642      2.777334      0.839172
  C      -0.433960      4.450305     -0.506321
  C      -0.148800      2.296513     -1.825931
  C      -2.078668      2.584303     -0.317137
  C       1.707872      4.319653      0.803096
  C       2.544843      2.163426     -0.231670
  C       2.161639      2.286874      2.190061
  H      -0.908841      4.837171     -1.417972
  H      -0.996903      4.870519      0.340319
  C       1.016928      4.924755     -0.417795
  H       0.771111      2.728602     -2.229554
  H       0.009341      1.219790     -1.701471
  H      -0.932843      2.454232     -2.577513
  H      -2.244676      1.502835     -0.298292
  H      -2.616250      3.000780     -1.176405
  H      -2.511912      3.015678      0.589598
  H       2.763960      4.620088      0.834962
  H       1.240808      4.720653      1.714084
  H       2.369281      1.086193     -0.297895
  H       2.407255      2.589333     -1.225969
  H       3.591881      2.336313      0.046372
  H       3.220565      2.562079      2.263316
  H       1.639739      2.727424      3.043847
  H       2.082496      1.197500      2.268770
  H       1.048026      6.019670     -0.361257
  H       1.563457      4.654692     -1.331458
  B      -0.327466     -0.412683      0.827565
  H       0.854041     -0.383211      0.519299
  C      -2.033055     -3.918215     -3.201375
  H      -1.772616     -3.883890     -4.271597
  H      -1.866666     -4.936800     -2.827890
  H      -3.099311     -3.690266     -3.099290
  C      -1.638231     -1.459439     -2.835549
  H      -1.073539     -0.698811     -2.284535
  H      -1.497097     -1.298314     -3.912586
  H      -2.696704     -1.316798     -2.594547
  C       0.723982     -4.581689     -2.546361
  H       1.794947     -4.672612     -2.340394
  H       0.179963     -5.192533     -1.812628
  H       0.534672     -4.981956     -3.550807
  C       1.093014     -2.264478     -3.459333
  H       0.773182     -2.507562     -4.479950
  C      -1.228940     -2.879786     -2.424003
  C       0.327992     -3.104269     -2.438934
  O      -1.546980     -3.017714     -1.010929
  O       0.715354     -2.665089     -1.109366
  B      -0.402251     -2.733217     -0.327500
  H       0.946913     -1.192504     -3.282551
  H       2.163622     -2.475873     -3.381522
  H      -1.094363     -0.301586     -0.132216
  C       2.070245     -2.422143      1.768485
  N       0.667719     -2.662279      2.074446
  C      -0.428381     -2.311069      1.194538
  C      -1.581897     -2.713041      1.942115
  C      -1.186431     -3.213552      3.211606
  C       0.216411     -3.145505      3.255945
  H       2.694564     -3.053700      2.436429
  H       2.305306     -1.345246      1.919295
  H       2.247449     -2.687750      0.709781
  H      -2.593434     -2.627594      1.530416
  H      -1.810456     -3.566080      4.038415
  H       0.915515     -3.393538      4.095551
74
Coordinates from ORCA-job input_IRC_F E -1325.527405684574
  C      -0.513489      1.936481      1.835401
  C      -0.763142      0.562316      2.050571
  C      -1.441593      0.231307      3.236074
  C      -1.867924      1.191241      4.152910
  C      -1.632433      2.539724      3.910105
  C      -0.954230      2.900769      2.750851
  H      -1.655390     -0.809273      3.450875
  H      -2.393572      0.882179      5.054251
  H      -1.967275      3.301154      4.611769
  H      -0.757868      3.951310      2.545768
  N       0.205929      2.321373      0.647945
  C      -0.581796      2.911584     -0.471013
  C       1.612486      2.777279      0.839027
  C      -0.433931      4.450440     -0.506225
  C      -0.148845      2.296667     -1.825895
  C      -2.078232      2.584576     -0.316895
  C       1.707830      4.319311      0.803039
  C       2.544794      2.163719     -0.231239
  C       2.161659      2.287171      2.190334
  H      -0.908402      4.837182     -1.417638
  H      -0.996274      4.870021      0.339746
  C       1.016837      4.924568     -0.418230
  H       0.769511      2.728434     -2.228983
  H       0.008824      1.221574     -1.701390
  H      -0.931490      2.454225     -2.576599
  H      -2.244773      1.504005     -0.298167
  H      -2.615537      3.000537     -1.175804
  H      -2.510891      3.014929      0.588934
  H       2.763388      4.619954      0.834812
  H       1.241206      4.720246      1.713637
  H       2.369529      1.086575     -0.297818
  H       2.407307      2.589380     -1.225506
  H       3.590826      2.336105      0.046059
  H       3.219222      2.561805      2.262969
  H       1.640046      2.726616      3.042810
  H       2.082320      1.198310      2.269019
  H       1.048035      6.019103     -0.361411
  H       1.562995      4.654794     -1.331093
  B      -0.328930     -0.410298      0.828967
  H       0.845969     -0.383242      0.519969
  C      -2.032195     -3.917409     -3.202483
  H      -1.774040     -3.884349     -4.267049
  H      -1.866731     -4.932099     -2.828988
  H      -3.097862     -3.691137     -3.100316
  C      -1.637992     -1.461353     -2.836009
  H      -1.074299     -0.701740     -2.285925
  H      -1.497720     -1.298962     -3.909715
  H      -2.695502     -1.317138     -2.595548
  C       0.723459     -4.580829     -2.546746
  H       1.793890     -4.672816     -2.340223
  H       0.181660     -5.190583     -1.815252
  H       0.534485     -4.980884     -3.548116
  C       1.091443     -2.264385     -3.457682
  H       0.773258     -2.506925     -4.478219
  C      -1.228484     -2.880112     -2.422552
  C       0.328897     -3.105339     -2.437486
  O      -1.546636     -3.020559     -1.015087
  O       0.716850     -2.671259     -1.112389
  B      -0.401118     -2.709777     -0.322594
  H       0.946880     -1.195873     -3.283131
  H       2.162651     -2.475873     -3.381135
  H      -1.087193     -0.307129     -0.124256
  C       2.074191     -2.420257      1.768295
  N       0.665373     -2.664168      2.079858
  C      -0.422673     -2.329229      1.215803
  C      -1.578169     -2.719472      1.957966
  C      -1.191187     -3.210203      3.201069
  C       0.217708     -3.138899      3.244493
  H       2.687940     -3.045501      2.427721
  H       2.304359     -1.358321      1.916979
  H       2.247976     -2.684119      0.720186
  H      -2.583399     -2.629842      1.537957
  H      -1.807079     -3.561720      4.027452
  H       0.899475     -3.387661      4.073020
74
Coordinates from ORCA-job input_IRC_F E -1325.529358479061
  C      -0.512982      1.936203      1.833669
  C      -0.766523      0.563467      2.048110
  C      -1.441064      0.233033      3.232175
  C      -1.866117      1.190400      4.151206
  C      -1.631015      2.537758      3.909152
  C      -0.952492      2.898847      2.750248
  H      -1.655790     -0.805431      3.451168
  H      -2.392437      0.881757      5.052612
  H      -1.966508      3.298775      4.609814
  H      -0.757783      3.949208      2.545124
  N       0.206210      2.321259      0.647049
  C      -0.581611      2.912011     -0.470893
  C       1.612112      2.777186      0.839076
  C      -0.433434      4.450117     -0.506412
  C      -0.149421      2.297887     -1.824251
  C      -2.076879      2.585036     -0.316988
  C       1.707436      4.318713      0.802407
  C       2.543771      2.163925     -0.230894
  C       2.160835      2.287201      2.189326
  H      -0.907794      4.837378     -1.417417
  H      -0.995561      4.869549      0.339495
  C       1.016622      4.923990     -0.418134
  H       0.768169      2.728934     -2.228379
  H       0.008095      1.223089     -1.700999
  H      -0.930405      2.454568     -2.576033
  H      -2.245031      1.505156     -0.297994
  H      -2.614535      3.000496     -1.175236
  H      -2.509411      3.014190      0.589041
  H       2.762743      4.619681      0.834428
  H       1.241665      4.719628      1.713184
  H       2.369901      1.086972     -0.297695
  H       2.407227      2.589631     -1.224868
  H       3.589893      2.336004      0.045929
  H       3.218174      2.561748      2.262402
  H       1.639735      2.725901      3.042184
  H       2.081921      1.198993      2.269503
  H       1.048051      6.018375     -0.361681
  H       1.562508      4.654689     -1.331207
  B      -0.329871     -0.407598      0.836955
  H       0.835323     -0.383817      0.520925
  C      -2.031569     -3.913882     -3.199967
  H      -1.774827     -3.884556     -4.264612
  H      -1.865967     -4.927272     -2.829367
  H      -3.096759     -3.691944     -3.101956
  C      -1.637761     -1.465344     -2.835203
  H      -1.074406     -0.705798     -2.287505
  H      -1.498202     -1.300164     -3.907821
  H      -2.694472     -1.318294     -2.596994
  C       0.724231     -4.578927     -2.547015
  H       1.793004     -4.673075     -2.339911
  H       0.182877     -5.188511     -1.817648
  H       0.533569     -4.979729     -3.546522
  C       1.090479     -2.267284     -3.455360
  H       0.772666     -2.506348     -4.475681
  C      -1.226822     -2.881305     -2.420761
  C       0.328157     -3.107033     -2.435965
  O      -1.539364     -3.017558     -1.011363
  O       0.718113     -2.674520     -1.108364
  B      -0.402458     -2.679207     -0.319763
  H       0.945888     -1.198556     -3.283025
  H       2.160889     -2.476025     -3.380113
  H      -1.078903     -0.319469     -0.114853
  C       2.067007     -2.421662      1.768793
  N       0.667595     -2.664024      2.077554
  C      -0.419595     -2.347500      1.221692
  C      -1.571863     -2.724555      1.962062
  C      -1.186705     -3.211146      3.202628
  C       0.207498     -3.134632      3.236536
  H       2.684861     -3.039345      2.421300
  H       2.305337     -1.366406      1.915315
  H       2.250152     -2.680700      0.726984
  H      -2.571744     -2.634080      1.550288
  H      -1.806495     -3.556904      4.015230
  H       0.882770     -3.380930      4.047127
74
Coordinates from ORCA-job input_IRC_F E -1325.529671548954
  C      -0.513226      1.936437      1.832644
  C      -0.768155      0.565175      2.048374
  C      -1.442769      0.233830      3.232171
  C      -1.865117      1.190668      4.149916
  C      -1.629968      2.536847      3.908967
  C      -0.951018      2.898631      2.748798
  H      -1.656271     -0.804911      3.450539
  H      -2.391371      0.880821      5.051489
  H      -1.965739      3.297343      4.608510
  H      -0.757180      3.948136      2.544477
  N       0.206527      2.320664      0.645910
  C      -0.581486      2.912275     -0.471049
  C       1.612029      2.777048      0.838802
  C      -0.433218      4.450243     -0.506382
  C      -0.149545      2.298445     -1.824125
  C      -2.076446      2.585221     -0.316823
  C       1.707257      4.318467      0.802074
  C       2.543484      2.163855     -0.231055
  C       2.160286      2.287041      2.189062
  H      -0.907407      4.837515     -1.417420
  H      -0.995206      4.869466      0.339718
  C       1.016671      4.923752     -0.418285
  H       0.767983      2.729794     -2.227886
  H       0.007592      1.223668     -1.700412
  H      -0.930402      2.455245     -2.575843
  H      -2.244983      1.505395     -0.297999
  H      -2.613839      3.000892     -1.175031
  H      -2.508363      3.014068      0.589730
  H       2.762546      4.619328      0.833983
  H       1.241737      4.719253      1.713071
  H       2.369956      1.086915     -0.297641
  H       2.406891      2.589969     -1.224711
  H       3.589471      2.336119      0.046094
  H       3.217592      2.561845      2.261862
  H       1.639073      2.725768      3.042001
  H       2.081482      1.198910      2.269647
  H       1.048066      6.017969     -0.361833
  H       1.562311      4.654389     -1.331612
  B      -0.331108     -0.406860      0.841607
  H       0.832358     -0.384667      0.522641
  C      -2.031233     -3.912843     -3.197912
  H      -1.774219     -3.883543     -4.263119
  H      -1.865006     -4.926443     -2.828090
  H      -3.096990     -3.691368     -3.102233
  C      -1.637400     -1.466433     -2.835159
  H      -1.073540     -0.707538     -2.287769
  H      -1.497969     -1.301960     -3.907802
  H      -2.694274     -1.320125     -2.597464
  C       0.724800     -4.578628     -2.546209
  H       1.793533     -4.673128     -2.339703
  H       0.182622     -5.188390     -1.817484
  H       0.532771     -4.978379     -3.546667
  C       1.090030     -2.268405     -3.453879
  H       0.771476     -2.507043     -4.473991
  C      -1.226446     -2.880643     -2.417946
  C       0.329265     -3.106405     -2.432907
  O      -1.538913     -3.009958     -1.009218
  O       0.721543     -2.670566     -1.107671
  B      -0.401036     -2.670079     -0.322240
  H       0.944689     -1.199428     -3.282014
  H       2.160273     -2.476780     -3.378789
  H      -1.077373     -0.330104     -0.111431
  C       2.066197     -2.421814      1.767260
  N       0.666422     -2.666219      2.073351
  C      -0.420992     -2.348736      1.217870
  C      -1.568251     -2.727646      1.959172
  C      -1.187931     -3.210807      3.200885
  C       0.206113     -3.133849      3.232552
  H       2.684544     -3.039558      2.421295
  H       2.305517     -1.365944      1.915575
  H       2.251353     -2.680138      0.725824
  H      -2.572463     -2.637271      1.555023
  H      -1.810563     -3.556223      4.014177
  H       0.883866     -3.380350      4.044566
74
Coordinates from ORCA-job input_IRC_F E -1325.529753285701
  C      -0.513129      1.936547      1.832292
  C      -0.768472      0.565179      2.048394
  C      -1.442867      0.233697      3.231822
  C      -1.865348      1.190531      4.150342
  C      -1.629418      2.537054      3.908301
  C      -0.951131      2.898516      2.749140
  H      -1.656408     -0.804799      3.450396
  H      -2.391100      0.880747      5.051191
  H      -1.965628      3.297255      4.608441
  H      -0.756986      3.948172      2.544295
  N       0.206510      2.320475      0.645838
  C      -0.581445      2.912334     -0.471082
  C       1.611962      2.777011      0.838658
  C      -0.433248      4.450264     -0.506342
  C      -0.149551      2.298529     -1.824168
  C      -2.076399      2.585260     -0.316730
  C       1.707278      4.318406      0.802091
  C       2.543528      2.163876     -0.231021
  C       2.160208      2.287074      2.189105
  H      -0.907346      4.837552     -1.417417
  H      -0.995123      4.869454      0.339736
  C       1.016711      4.923703     -0.418398
  H       0.767947      2.729941     -2.227797
  H       0.007503      1.223795     -1.700319
  H      -0.930416      2.455389     -2.575829
  H      -2.244953      1.505427     -0.298010
  H      -2.613742      3.000995     -1.174991
  H      -2.508156      3.014038      0.589813
  H       2.762505      4.619252      0.833896
  H       1.241754      4.719182      1.713021
  H       2.369950      1.086869     -0.297652
  H       2.406821      2.590028     -1.224718
  H       3.589372      2.336136      0.046101
  H       3.217448      2.561846      2.261770
  H       1.638970      2.725727      3.041910
  H       2.081388      1.198854      2.269658
  H       1.048084      6.017923     -0.361864
  H       1.562256      4.654341     -1.331650
  B      -0.331330     -0.407044      0.842204
  H       0.831991     -0.384782      0.523062
  C      -2.031087     -3.912875     -3.197693
  H      -1.774075     -3.883305     -4.262541
  H      -1.864874     -4.926257     -2.827806
  H      -3.097029     -3.691231     -3.102181
  C      -1.637283     -1.466521     -2.835362
  H      -1.073386     -0.707745     -2.287812
  H      -1.497903     -1.302316     -3.907809
  H      -2.694263     -1.320441     -2.597523
  C       0.724693     -4.578613     -2.545975
  H       1.793705     -4.673177     -2.339641
  H       0.182658     -5.188362     -1.817462
  H       0.532662     -4.977984     -3.546500
  C       1.089831     -2.268203     -3.453648
  H       0.771227     -2.507260     -4.473716
  C      -1.226229     -2.880325     -2.417539
  C       0.329436     -3.106304     -2.432577
  O      -1.539033     -3.008682     -1.009254
  O       0.721768     -2.669863     -1.107678
  B      -0.400415     -2.668628     -0.322255
  H       0.944523     -1.199767     -3.281834
  H       2.160287     -2.476949     -3.378535
  H      -1.077351     -0.331953     -0.110946
  C       2.066173     -2.421739      1.767289
  N       0.666133     -2.666386      2.072394
  C      -0.420286     -2.348878      1.217570
  C      -1.569787     -2.727999      1.958497
  C      -1.187815     -3.210934      3.200724
  C       0.206620     -3.134159      3.232804
  H       2.684387     -3.039552      2.421150
  H       2.305422     -1.366055      1.915571
  H       2.251660     -2.680060      0.725411
  H      -2.572053     -2.637944      1.555867
  H      -1.811142     -3.555964      4.013703
  H       0.883743     -3.380099      4.043648
74
Coordinates from ORCA-job input_IRC_F E -1325.529837689752
  C      -0.513109      1.936593      1.831896
  C      -0.768982      0.565326      2.048279
  C      -1.443248      0.233694      3.231552
  C      -1.865375      1.190466      4.150419
  C      -1.628861      2.537082      3.907841
  C      -0.950944      2.898496      2.749096
  H      -1.656693     -0.804696      3.450101
  H      -2.390752      0.880546      5.050933
  H      -1.965333      3.297059      4.608199
  H      -0.756636      3.948156      2.543994
  N       0.206531      2.320197      0.645591
  C      -0.581406      2.912411     -0.471147
  C       1.611873      2.776921      0.838495
  C      -0.433240      4.450295     -0.506301
  C      -0.149586      2.298717     -1.824213
  C      -2.076288      2.585323     -0.316628
  C       1.707271      4.318289      0.802033
  C       2.543523      2.163869     -0.231031
  C       2.160029      2.287054      2.189084
  H      -0.907240      4.837622     -1.417404
  H      -0.994983      4.869452      0.339802
  C       1.016755      4.923625     -0.418521
  H       0.767901      2.730228     -2.227646
  H       0.007339      1.224023     -1.700156
  H      -0.930451      2.455670     -2.575816
  H      -2.244890      1.505489     -0.298030
  H      -2.613558      3.001194     -1.174886
  H      -2.507776      3.013997      0.590013
  H       2.762459      4.619100      0.833734
  H       1.241776      4.719052      1.712940
  H       2.369950      1.086817     -0.297675
  H       2.406702      2.590124     -1.224706
  H       3.589245      2.336182      0.046133
  H       3.217206      2.561859      2.261607
  H       1.638741      2.725677      3.041778
  H       2.081210      1.198787      2.269679
  H       1.048128      6.017832     -0.361933
  H       1.562176      4.654233     -1.331765
  B      -0.331726     -0.407490      0.843246
  H       0.831332     -0.384978      0.523896
  C      -2.030879     -3.912725     -3.197023
  H      -1.773731     -3.882857     -4.261581
  H      -1.864614     -4.925985     -2.827211
  H      -3.096992     -3.690988     -3.102056
  C      -1.637100     -1.466645     -2.835654
  H      -1.073111     -0.708095     -2.287934
  H      -1.497753     -1.302969     -3.907962
  H      -2.694177     -1.321042     -2.597661
  C       0.724701     -4.578455     -2.545504
  H       1.793921     -4.673275     -2.339528
  H       0.182676     -5.188364     -1.817333
  H       0.532434     -4.977219     -3.546190
  C       1.089646     -2.268187     -3.453289
  H       0.770752     -2.507661     -4.473160
  C      -1.225943     -2.879825     -2.416962
  C       0.329684     -3.106049     -2.432010
  O      -1.538932     -3.006171     -1.009040
  O       0.722341     -2.668511     -1.107725
  B      -0.399652     -2.666048     -0.322439
  H       0.944170     -1.200150     -3.281448
  H       2.160191     -2.477216     -3.378066
  H      -1.077384     -0.335482     -0.110054
  C       2.066090     -2.421731      1.766942
  N       0.665879     -2.666906      2.071311
  C      -0.419972     -2.349234      1.217221
  C      -1.570541     -2.728715      1.957783
  C      -1.187734     -3.211126      3.200178
  C       0.206836     -3.134468      3.232299
  H       2.684077     -3.039575      2.420899
  H       2.305224     -1.366177      1.915587
  H       2.252248     -2.679840      0.724829
  H      -2.572284     -2.639154      1.557019
  H      -1.812166     -3.555464      4.012774
  H       0.883929     -3.379760      4.042338
74
Coordinates from ORCA-job input_IRC_F E -1325.529927449363
  C      -0.513103      1.936611      1.831420
  C      -0.769715      0.565432      2.048224
  C      -1.443669      0.233705      3.231063
  C      -1.865404      1.190461      4.150497
  C      -1.628187      2.537115      3.907295
  C      -0.950706      2.898405      2.749022
  H      -1.657123     -0.804626      3.449701
  H      -2.390330      0.880320      5.050681
  H      -1.964909      3.296870      4.607916
  H      -0.756145      3.948181      2.543596
  N       0.206566      2.319868      0.645235
  C      -0.581370      2.912485     -0.471231
  C       1.611771      2.776780      0.838342
  C      -0.433195      4.450332     -0.506269
  C      -0.149657      2.298987     -1.824256
  C      -2.076135      2.585397     -0.316538
  C       1.707240      4.318134      0.801906
  C       2.543476      2.163831     -0.231080
  C       2.159772      2.286983      2.188997
  H      -0.907119      4.837717     -1.417377
  H      -0.994809      4.869471      0.339907
  C       1.016797      4.923527     -0.418635
  H       0.767860      2.730602     -2.227470
  H       0.007130      1.224315     -1.699971
  H      -0.930504      2.456054     -2.575823
  H      -2.244795      1.505565     -0.298062
  H      -2.613337      3.001469     -1.174719
  H      -2.507294      3.013954      0.590294
  H       2.762424      4.618888      0.833527
  H       1.241803      4.718887      1.712834
  H       2.369956      1.086762     -0.297720
  H       2.406557      2.590231     -1.224686
  H       3.589121      2.336251      0.046178
  H       3.216906      2.561876      2.261412
  H       1.638419      2.725629      3.041620
  H       2.080969      1.198713      2.269701
  H       1.048202      6.017721     -0.362033
  H       1.562082      4.654081     -1.331935
  B      -0.332233     -0.408268      0.844438
  H       0.830559     -0.385213      0.525035
  C      -2.030631     -3.912408     -3.195956
  H      -1.773197     -3.882277     -4.260386
  H      -1.864276     -4.925677     -2.826345
  H      -3.096854     -3.690668     -3.101809
  C      -1.636873     -1.466746     -2.836036
  H      -1.072777     -0.708443     -2.288162
  H      -1.497528     -1.303774     -3.908322
  H      -2.694004     -1.321798     -2.597878
  C       0.724804     -4.578136     -2.544833
  H       1.794137     -4.673400     -2.339362
  H       0.182687     -5.188391     -1.817074
  H       0.532126     -4.976177     -3.545750
  C       1.089510     -2.268349     -3.452892
  H       0.770134     -2.508195     -4.472449
  C      -1.225655     -2.879197     -2.416367
  C       0.329961     -3.105669     -2.431337
  O      -1.538603     -3.002905     -1.008598
  O       0.723136     -2.666720     -1.107775
  B      -0.398977     -2.662942     -0.322709
  H       0.943712     -1.200483     -3.280931
  H       2.160020     -2.477522     -3.377477
  H      -1.077582     -0.340053     -0.108969
  C       2.065978     -2.421832      1.766370
  N       0.665827     -2.667515      2.070015
  C      -0.419881     -2.349615      1.216805
  C      -1.571094     -2.729540      1.956901
  C      -1.187796     -3.211536      3.199666
  C       0.207010     -3.134960      3.231673
  H       2.683661     -3.039622      2.420525
  H       2.304906     -1.366308      1.915602
  H       2.253004     -2.679508      0.724153
  H      -2.572829     -2.640730      1.558283
  H      -1.813338     -3.554785      4.011454
  H       0.884318     -3.379393      4.040770
74
Coordinates from ORCA-job input_IRC_F E -1325.530007582810
  C      -0.513183      1.936491      1.831039
  C      -0.770397      0.565503      2.047935
  C      -1.444268      0.233789      3.230826
  C      -1.865259      1.190516      4.150240
  C      -1.627740      2.537015      3.907126
  C      -0.950266      2.898427      2.748600
  H      -1.657655     -0.804611      3.449228
  H      -2.389964      0.880123      5.050599
  H      -1.964370      3.296741      4.607611
  H      -0.755604      3.948129      2.543205
  N       0.206599      2.319552      0.644856
  C      -0.581344      2.912556     -0.471319
  C       1.611665      2.776616      0.838196
  C      -0.433140      4.450376     -0.506233
  C      -0.149739      2.299289     -1.824315
  C      -2.075979      2.585473     -0.316456
  C       1.707208      4.317959      0.801749
  C       2.543421      2.163774     -0.231149
  C       2.159490      2.286884      2.188887
  H      -0.907016      4.837825     -1.417332
  H      -0.994624      4.869511      0.340029
  C       1.016840      4.923430     -0.418746
  H       0.767824      2.730992     -2.227306
  H       0.006914      1.224630     -1.699828
  H      -0.930567      2.456490     -2.575859
  H      -2.244677      1.505636     -0.298111
  H      -2.613146      3.001788     -1.174513
  H      -2.506789      3.013908      0.590599
  H       2.762406      4.618634      0.833308
  H       1.241832      4.718716      1.712707
  H       2.369970      1.086702     -0.297795
  H       2.406415      2.590319     -1.224671
  H       3.589012      2.336326      0.046214
  H       3.216586      2.561884      2.261227
  H       1.638056      2.725585      3.041440
  H       2.080697      1.198632      2.269713
  H       1.048306      6.017607     -0.362154
  H       1.561986      4.653912     -1.332123
  B      -0.332802     -0.409338      0.845530
  H       0.829851     -0.385440      0.526302
  C      -2.030344     -3.912041     -3.194743
  H      -1.772544     -3.881677     -4.259066
  H      -1.863923     -4.925351     -2.825287
  H      -3.096641     -3.690304     -3.101403
  C      -1.636612     -1.466754     -2.836534
  H      -1.072461     -0.708646     -2.288527
  H      -1.497260     -1.304561     -3.908863
  H      -2.693775     -1.322531     -2.598168
  C       0.724927     -4.577723     -2.544048
  H       1.794325     -4.673515     -2.339135
  H       0.182714     -5.188403     -1.816701
  H       0.531793     -4.975000     -3.545200
  C       1.089411     -2.268539     -3.452537
  H       0.769489     -2.508786     -4.471750
  C      -1.225350     -2.878490     -2.415799
  C       0.330234     -3.105195     -2.430636
  O      -1.538260     -2.999570     -1.008122
  O       0.723895     -2.664810     -1.107797
  B      -0.398352     -2.659937     -0.322974
  H       0.943263     -1.200754     -3.280408
  H       2.159841     -2.477807     -3.376894
  H      -1.078013     -0.344825     -0.107941
  C       2.065891     -2.421946      1.765645
  N       0.665725     -2.668245      2.069116
  C      -0.420101     -2.349925      1.216534
  C      -1.570966     -2.730384      1.956334
  C      -1.187783     -3.211964      3.198870
  C       0.206976     -3.135439      3.230619
  H       2.683251     -3.039735      2.420085
  H       2.304499     -1.366446      1.915597
  H       2.253799     -2.679119      0.723476
  H      -2.573758     -2.642380      1.559247
  H      -1.814536     -3.554162      4.010172
  H       0.885004     -3.379164      4.039421
74
Coordinates from ORCA-job input_IRC_F E -1325.530079956305
  C      -0.513251      1.936345      1.830585
  C      -0.771160      0.565407      2.047626
  C      -1.444857      0.233778      3.230447
  C      -1.865231      1.190557      4.150164
  C      -1.627166      2.537041      3.906749
  C      -0.949944      2.898339      2.748367
  H      -1.658297     -0.804593      3.448710
  H      -2.389545      0.880008      5.050493
  H      -1.963756      3.296692      4.607360
  H      -0.754984      3.948074      2.542778
  N       0.206620      2.319217      0.644478
  C      -0.581319      2.912644     -0.471415
  C       1.611548      2.776440      0.838023
  C      -0.433092      4.450429     -0.506183
  C      -0.149827      2.299609     -1.824403
  C      -2.075831      2.585557     -0.316365
  C       1.707188      4.317770      0.801590
  C       2.543379      2.163710     -0.231217
  C       2.159189      2.286786      2.188782
  H      -0.906932      4.837947     -1.417270
  H      -0.994425      4.869566      0.340158
  C       1.016894      4.923325     -0.418882
  H       0.767788      2.731393     -2.227157
  H       0.006688      1.224970     -1.699736
  H      -0.930633      2.456975     -2.575919
  H      -2.244538      1.505701     -0.298179
  H      -2.612986      3.002149     -1.174272
  H      -2.506265      3.013850      0.590916
  H       2.762397      4.618339      0.833077
  H       1.241869      4.718536      1.712555
  H       2.369989      1.086621     -0.297900
  H       2.406276      2.590392     -1.224672
  H       3.588902      2.336400      0.046236
  H       3.216241      2.561876      2.261053
  H       1.637662      2.725538      3.041230
  H       2.080395      1.198523      2.269716
  H       1.048443      6.017493     -0.362292
  H       1.561884      4.653729     -1.332318
  B      -0.333451     -0.410680      0.846548
  H       0.829174     -0.385678      0.527661
  C      -2.029997     -3.911675     -3.193450
  H      -1.771795     -3.881076     -4.257603
  H      -1.863556     -4.924971     -2.824039
  H      -3.096376     -3.689889     -3.100835
  C      -1.636305     -1.466689     -2.837164
  H      -1.072166     -0.708687     -2.289048
  H      -1.496960     -1.305322     -3.909544
  H      -2.693511     -1.323209     -2.598549
  C       0.725006     -4.577248     -2.543155
  H       1.794518     -4.673601     -2.338833
  H       0.182772     -5.188365     -1.816225
  H       0.531438     -4.973708     -3.544537
  C       1.089294     -2.268653     -3.452198
  H       0.768835     -2.509424     -4.471072
  C      -1.225003     -2.877687     -2.415210
  C       0.330522     -3.104656     -2.429898
  O      -1.537979     -2.996232     -1.007688
  O       0.724599     -2.662811     -1.107772
  B      -0.397744     -2.657008     -0.323156
  H       0.942848     -1.201027     -3.279918
  H       2.159694     -2.478075     -3.376330
  H      -1.078640     -0.349738     -0.106968
  C       2.065818     -2.422064      1.764978
  N       0.665631     -2.668892      2.068075
  C      -0.420071     -2.350060      1.216265
  C      -1.571491     -2.731170      1.955633
  C      -1.187683     -3.212538      3.198169
  C       0.207133     -3.136134      3.229892
  H       2.682857     -3.039888      2.419551
  H       2.304011     -1.366607      1.915566
  H       2.254590     -2.678703      0.722728
  H      -2.574409     -2.644129      1.560161
  H      -1.815711     -3.553603      4.008885
  H       0.885700     -3.379008      4.038002
