74
Coordinates from ORCA-job input_IRC_B E -1325.526614874711
  C      -0.575787      1.865185      1.679985
  C      -0.719536      0.496921      1.996446
  C      -1.430511      0.186354      3.160533
  C      -2.008578      1.160066      3.973618
  C      -1.880640      2.503608      3.635135
  C      -1.162046      2.844367      2.495442
  H      -1.524980     -0.855988      3.462121
  H      -2.551737      0.869774      4.869118
  H      -2.323345      3.280645      4.256515
  H      -1.039736      3.892836      2.233635
  N       0.215290      2.232078      0.535495
  C      -0.517845      2.750267     -0.651423
  C       1.568096      2.793070      0.822706
  C      -0.502714      4.296541     -0.692827
  C       0.094238      2.189737     -1.961335
  C      -1.980802      2.267809     -0.624379
  C       1.562792      4.337689      0.747116
  C       2.618443      2.212984     -0.153860
  C       2.039037      2.383280      2.229241
  H      -0.944755      4.638323     -1.638082
  H      -1.149297      4.678111      0.110025
  C       0.903584      4.875201     -0.523261
  H       0.973055      2.745484     -2.299092
  H       0.390105      1.145884     -1.813181
  H      -0.645081      2.239420     -2.769973
  H      -2.032462      1.172873     -0.600318
  H      -2.487520      2.615234     -1.530763
  H      -2.528256      2.653630      0.239870
  H       2.594314      4.706380      0.827832
  H       1.024122      4.727901      1.621660
  H       2.501607      1.127869     -0.219605
  H       2.551255      2.624449     -1.161853
  H       3.627693      2.436287      0.211884
  H       3.060543      2.751593      2.379578
  H       1.410185      2.798568      3.021181
  H       2.046256      1.293938      2.333474
  H       0.854920      5.970156     -0.483777
  H       1.520115      4.632498     -1.398834
  B       0.068896     -0.597635      1.087423
  H       1.281309     -0.485999      1.111631
  C      -2.221221     -3.565041     -2.766451
  H      -1.972372     -3.779972     -3.818179
  H      -2.158454     -4.498738     -2.191168
  H      -3.258507     -3.215666     -2.723936
  C      -1.595607     -1.137631     -2.860401
  H      -0.961573     -0.338743     -2.462453
  H      -1.459197     -1.177822     -3.949952
  H      -2.635772     -0.867876     -2.648357
  C       0.469884     -4.389375     -2.113957
  H       1.538759     -4.565256     -1.957502
  H      -0.076329     -4.819943     -1.262444
  H       0.166024     -4.918686     -3.027005
  C       1.023182     -2.286474     -3.378005
  H       0.641878     -2.657942     -4.338552
  C      -1.298590     -2.489138     -2.194303
  C       0.229882     -2.876343     -2.209272
  O      -1.582024     -2.359512     -0.785929
  O       0.723022     -2.297805     -0.983762
  B      -0.385605     -2.027293     -0.162338
  H       0.978357     -1.191580     -3.376441
  H       2.073812     -2.581243     -3.297202
  H      -0.226093     -0.487040     -0.143654
  C       2.225879     -2.847857      1.730277
  N       0.812109     -2.998599      2.038420
  C      -0.251559     -2.208787      1.468850
  C      -1.421397     -2.734087      2.086405
  C      -1.069363     -3.779440      2.982202
  C       0.330567     -3.905511      2.919469
  H       2.758726     -3.751384      2.095357
  H       2.633338     -1.940770      2.225253
  H       2.332965     -2.749954      0.633849
  H      -2.422152     -2.373352      1.837932
  H      -1.719326     -4.409768      3.597503
  H       0.986433     -4.636798      3.457421
74
Coordinates from ORCA-job input_IRC_B E -1325.531253333369
  C      -0.575415      1.865173      1.680666
  C      -0.716474      0.496551      1.993434
  C      -1.431118      0.186167      3.161410
  C      -2.007920      1.160286      3.972462
  C      -1.880629      2.502563      3.634882
  C      -1.162054      2.843476      2.494455
  H      -1.524980     -0.853698      3.462110
  H      -2.551471      0.869563      4.868674
  H      -2.322780      3.279112      4.255469
  H      -1.039551      3.891965      2.233520
  N       0.215914      2.230679      0.534799
  C      -0.518461      2.750275     -0.652642
  C       1.569099      2.793643      0.822700
  C      -0.502227      4.295823     -0.692898
  C       0.093929      2.190359     -1.960629
  C      -1.979371      2.267998     -0.623659
  C       1.562584      4.337454      0.746702
  C       2.618055      2.213642     -0.153527
  C       2.038850      2.383307      2.229224
  H      -0.944526      4.638278     -1.637730
  H      -1.148947      4.677533      0.109406
  C       0.903275      4.875144     -0.523254
  H       0.971602      2.744126     -2.298901
  H       0.389972      1.147416     -1.813566
  H      -0.643866      2.239421     -2.769163
  H      -2.032754      1.174039     -0.599995
  H      -2.486787      2.615144     -1.530248
  H      -2.527954      2.652765      0.238595
  H       2.593552      4.706197      0.827721
  H       1.024195      4.727545      1.621400
  H       2.501729      1.128196     -0.219406
  H       2.551148      2.624396     -1.161366
  H       3.626760      2.436122      0.211731
  H       3.059240      2.751283      2.379260
  H       1.410897      2.797987      3.020425
  H       2.046583      1.294745      2.333989
  H       0.854887      5.969552     -0.483878
  H       1.519884      4.632888     -1.398318
  B       0.067504     -0.587665      1.095640
  H       1.273868     -0.486987      1.108600
  C      -2.221098     -3.565777     -2.766534
  H      -1.973589     -3.778573     -3.813675
  H      -2.158138     -4.494376     -2.193521
  H      -3.257055     -3.216272     -2.724447
  C      -1.595483     -1.139424     -2.860229
  H      -0.962106     -0.341126     -2.463167
  H      -1.459840     -1.178079     -3.946484
  H      -2.634483     -0.868401     -2.648992
  C       0.468043     -4.389487     -2.113925
  H       1.537568     -4.565049     -1.957115
  H      -0.074272     -4.818180     -1.264956
  H       0.166748     -4.916880     -3.024862
  C       1.021219     -2.286849     -3.376211
  H       0.642035     -2.656977     -4.336334
  C      -1.299057     -2.489556     -2.194468
  C       0.230822     -2.877438     -2.206825
  O      -1.582840     -2.356683     -0.788329
  O       0.723524     -2.304057     -0.990508
  B      -0.372394     -2.021103     -0.166504
  H       0.978339     -1.194622     -3.376416
  H       2.072819     -2.581032     -3.296558
  H      -0.231106     -0.489392     -0.133357
  C       2.230201     -2.847096      1.729052
  N       0.810835     -3.004949      2.040859
  C      -0.244787     -2.233403      1.486289
  C      -1.419208     -2.746109      2.096308
  C      -1.071391     -3.772319      2.973953
  C       0.326359     -3.900011      2.912244
  H       2.753720     -3.740028      2.090329
  H       2.629849     -1.951127      2.219214
  H       2.334150     -2.750947      0.644087
  H      -2.414278     -2.379467      1.841634
  H      -1.714826     -4.400155      3.589222
  H       0.973384     -4.615556      3.442901
74
Coordinates from ORCA-job input_IRC_B E -1325.532981046657
  C      -0.573680      1.865569      1.679681
  C      -0.716544      0.499358      1.997077
  C      -1.430848      0.187685      3.160955
  C      -2.007311      1.159754      3.970983
  C      -1.880165      2.500935      3.633259
  C      -1.161834      2.842323      2.492549
  H      -1.524987     -0.850903      3.462371
  H      -2.550583      0.869113      4.867140
  H      -2.322038      3.276651      4.253751
  H      -1.039181      3.890209      2.233000
  N       0.217483      2.228242      0.533305
  C      -0.517760      2.750148     -0.652659
  C       1.569187      2.793636      0.822372
  C      -0.501696      4.294957     -0.693184
  C       0.092978      2.190938     -1.959466
  C      -1.977791      2.268400     -0.623895
  C       1.561884      4.337128      0.746304
  C       2.617451      2.214127     -0.153225
  C       2.038388      2.383388      2.228167
  H      -0.944042      4.638139     -1.637282
  H      -1.148428      4.676235      0.108472
  C       0.902861      4.874487     -0.523125
  H       0.970387      2.742749     -2.298864
  H       0.389831      1.149164     -1.813964
  H      -0.642658      2.239562     -2.768645
  H      -2.033081      1.175223     -0.599359
  H      -2.485096      2.614986     -1.529319
  H      -2.527748      2.651800      0.237382
  H       2.592464      4.706101      0.827421
  H       1.024109      4.726798      1.620985
  H       2.501837      1.129124     -0.218858
  H       2.550712      2.624644     -1.160828
  H       3.625826      2.436147      0.211770
  H       3.058053      2.751260      2.378863
  H       1.411348      2.797469      3.019887
  H       2.047300      1.295427      2.334986
  H       0.854531      5.968763     -0.483949
  H       1.519785      4.633519     -1.397811
  B       0.063507     -0.592111      1.110765
  H       1.264155     -0.487154      1.103213
  C      -2.221059     -3.561849     -2.764100
  H      -1.974543     -3.776599     -3.810209
  H      -2.157067     -4.490787     -2.194802
  H      -3.256431     -3.216581     -2.725192
  C      -1.595287     -1.142926     -2.858628
  H      -0.961925     -0.345394     -2.463719
  H      -1.460600     -1.179169     -3.943740
  H      -2.633188     -0.869672     -2.649637
  C       0.468263     -4.388533     -2.114949
  H       1.535519     -4.564604     -1.956340
  H      -0.073048     -4.816458     -1.266087
  H       0.166854     -4.915207     -3.023998
  C       1.019555     -2.289963     -3.373741
  H       0.641203     -2.656049     -4.333329
  C      -1.298461     -2.489703     -2.192320
  C       0.228557     -2.881230     -2.210019
  O      -1.571958     -2.346629     -0.785661
  O       0.731484     -2.309896     -0.994730
  B      -0.360601     -2.011647     -0.163789
  H       0.977462     -1.198210     -3.375418
  H       2.070582     -2.581015     -3.294717
  H      -0.243613     -0.496180     -0.113677
  C       2.222375     -2.849065      1.729467
  N       0.812221     -3.010108      2.038999
  C      -0.239808     -2.243190      1.484067
  C      -1.411805     -2.753128      2.096623
  C      -1.069653     -3.773379      2.971286
  C       0.316223     -3.894883      2.904023
  H       2.752968     -3.731131      2.085367
  H       2.627359     -1.958790      2.214341
  H       2.337398     -2.751886      0.650461
  H      -2.403805     -2.390770      1.848253
  H      -1.713877     -4.388418      3.580311
  H       0.960007     -4.588977      3.426149
74
Coordinates from ORCA-job input_IRC_B E -1325.533276979769
  C      -0.573256      1.865001      1.679537
  C      -0.716017      0.498883      1.998101
  C      -1.431304      0.188120      3.162018
  C      -2.007574      1.160267      3.970941
  C      -1.880259      2.500825      3.632827
  C      -1.161444      2.842273      2.491625
  H      -1.524976     -0.850818      3.462554
  H      -2.550686      0.868889      4.867141
  H      -2.321861      3.276064      4.253060
  H      -1.039058      3.890119      2.232533
  N       0.217883      2.227521      0.532902
  C      -0.517502      2.749913     -0.652620
  C       1.569187      2.793389      0.822166
  C      -0.501531      4.294741     -0.693161
  C       0.093055      2.190894     -1.959644
  C      -1.977559      2.268339     -0.623761
  C       1.561648      4.336900      0.746270
  C       2.617529      2.214251     -0.153299
  C       2.038361      2.383347      2.228135
  H      -0.943876      4.637921     -1.637324
  H      -1.148441      4.675818      0.108458
  C       0.902863      4.874419     -0.523163
  H       0.970524      2.742773     -2.298924
  H       0.389794      1.149045     -1.813892
  H      -0.642799      2.239717     -2.768763
  H      -2.033014      1.175128     -0.599210
  H      -2.484493      2.615130     -1.529512
  H      -2.527760      2.651810      0.237376
  H       2.592160      4.706065      0.827297
  H       1.023820      4.726554      1.621009
  H       2.501780      1.129219     -0.218668
  H       2.550469      2.624861     -1.160854
  H       3.625808      2.436361      0.211912
  H       3.057977      2.751506      2.378651
  H       1.411223      2.797467      3.019801
  H       2.047564      1.295370      2.335211
  H       0.854255      5.968612     -0.483877
  H       1.519902      4.633622     -1.397836
  B       0.062203     -0.595589      1.114819
  H       1.262368     -0.487009      1.101791
  C      -2.220998     -3.561023     -2.762621
  H      -1.974345     -3.775208     -3.809106
  H      -2.156754     -4.490580     -2.194164
  H      -3.257176     -3.215895     -2.724924
  C      -1.595006     -1.143112     -2.858599
  H      -0.961160     -0.346366     -2.463446
  H      -1.460671     -1.180177     -3.943762
  H      -2.633150     -0.870390     -2.649367
  C       0.467931     -4.389065     -2.115104
  H       1.535527     -4.564340     -1.956174
  H      -0.073292     -4.816207     -1.265842
  H       0.166515     -4.915595     -3.024905
  C       1.019262     -2.290476     -3.373916
  H       0.640388     -2.656513     -4.333705
  C      -1.297403     -2.488606     -2.190363
  C       0.229575     -2.880837     -2.208809
  O      -1.569558     -2.343544     -0.784819
  O       0.734328     -2.309695     -0.994396
  B      -0.356746     -2.008686     -0.165147
  H       0.976723     -1.199004     -3.374527
  H       2.070197     -2.581684     -3.293717
  H      -0.249346     -0.499025     -0.107773
  C       2.222613     -2.849209      1.728447
  N       0.811153     -3.009230      2.035539
  C      -0.240058     -2.241244      1.481501
  C      -1.410835     -2.752858      2.093243
  C      -1.070715     -3.771841      2.968708
  C       0.316248     -3.893509      2.901418
  H       2.754206     -3.732276      2.085297
  H       2.626324     -1.958428      2.214545
  H       2.337881     -2.752141      0.649308
  H      -2.404203     -2.393229      1.848933
  H      -1.717169     -4.387637      3.580609
  H       0.962654     -4.588125      3.426786
74
Coordinates from ORCA-job input_IRC_B E -1325.533400644975
  C      -0.572953      1.864758      1.679344
  C      -0.715948      0.498582      1.998827
  C      -1.431208      0.188126      3.162092
  C      -2.007965      1.160363      3.971375
  C      -1.880025      2.500947      3.632175
  C      -1.161532      2.842135      2.491621
  H      -1.525024     -0.850788      3.462734
  H      -2.550695      0.868911      4.867031
  H      -2.321863      3.275969      4.252816
  H      -1.038974      3.890059      2.232244
  N       0.218031      2.227121      0.532783
  C      -0.517402      2.749788     -0.652631
  C       1.569193      2.793281      0.822103
  C      -0.501468      4.294615     -0.693155
  C       0.093096      2.190873     -1.959725
  C      -1.977456      2.268300     -0.623699
  C       1.561550      4.336801      0.746261
  C       2.617576      2.214310     -0.153322
  C       2.038358      2.383332      2.228123
  H      -0.943799      4.637797     -1.637338
  H      -1.148438      4.675623      0.108448
  C       0.902845      4.874383     -0.523173
  H       0.970566      2.742759     -2.298954
  H       0.389771      1.149000     -1.813884
  H      -0.642838      2.239781     -2.768805
  H      -2.032986      1.175097     -0.599149
  H      -2.484208      2.615181     -1.529588
  H      -2.527739      2.651812      0.237343
  H       2.592017      4.706038      0.827256
  H       1.023679      4.726425      1.621005
  H       2.501771      1.129259     -0.218599
  H       2.550370      2.624949     -1.160858
  H       3.625803      2.436467      0.211958
  H       3.057935      2.751626      2.378555
  H       1.411177      2.797456      3.019741
  H       2.047695      1.295352      2.335312
  H       0.854127      5.968546     -0.483837
  H       1.519954      4.633672     -1.397841
  B       0.061747     -0.596750      1.116538
  H       1.261588     -0.486967      1.101139
  C      -2.220963     -3.560669     -2.761880
  H      -1.974230     -3.774487     -3.808441
  H      -2.156649     -4.490382     -2.193859
  H      -3.257326     -3.215571     -2.724691
  C      -1.594839     -1.143213     -2.858581
  H      -0.960799     -0.346695     -2.463368
  H      -1.460686     -1.180664     -3.943726
  H      -2.633064     -0.870707     -2.649227
  C       0.467753     -4.389241     -2.115139
  H       1.535513     -4.564296     -1.956112
  H      -0.073379     -4.816119     -1.265792
  H       0.166408     -4.915633     -3.025118
  C       1.019096     -2.290712     -3.373994
  H       0.640054     -2.656722     -4.333732
  C      -1.296985     -2.488199     -2.189696
  C       0.229956     -2.880810     -2.208502
  O      -1.568581     -2.342212     -0.784546
  O       0.735606     -2.309504     -0.994415
  B      -0.355234     -2.007122     -0.165515
  H       0.976410     -1.199367     -3.374153
  H       2.070049     -2.582000     -3.293331
  H      -0.252055     -0.500202     -0.105416
  C       2.222648     -2.849410      1.728101
  N       0.811356     -3.008870      2.034044
  C      -0.239768     -2.241052      1.480819
  C      -1.411578     -2.752397      2.091662
  C      -1.071312     -3.772147      2.968315
  C       0.316633     -3.893704      2.900844
  H       2.754509     -3.732460      2.085109
  H       2.625818     -1.958377      2.214514
  H       2.338221     -2.752240      0.648771
  H      -2.404185     -2.394331      1.849096
  H      -1.718039     -4.386537      3.579995
  H       0.963223     -4.586975      3.426471
74
Coordinates from ORCA-job input_IRC_B E -1325.533632403528
  C      -0.572311      1.864012      1.679113
  C      -0.715634      0.498022      2.000525
  C      -1.431249      0.188168      3.162820
  C      -2.008607      1.160661      3.971901
  C      -1.879805      2.501036      3.631088
  C      -1.161429      2.841735      2.491100
  H      -1.525177     -0.850741      3.463287
  H      -2.550936      0.869011      4.867026
  H      -2.321840      3.275793      4.252045
  H      -1.038761      3.889800      2.231437
  N       0.218441      2.226029      0.532450
  C      -0.517137      2.749420     -0.652663
  C       1.569231      2.792984      0.821979
  C      -0.501316      4.294251     -0.693144
  C       0.093177      2.190782     -1.959928
  C      -1.977191      2.268191     -0.623617
  C       1.561268      4.336538      0.746241
  C       2.617694      2.214438     -0.153376
  C       2.038373      2.383282      2.228071
  H      -0.943597      4.637422     -1.637360
  H      -1.148422      4.675090      0.108421
  C       0.902796      4.874254     -0.523191
  H       0.970680      2.742710     -2.299046
  H       0.389711      1.148882     -1.813899
  H      -0.642909      2.239944     -2.768904
  H      -2.032919      1.175004     -0.598994
  H      -2.483422      2.615280     -1.529752
  H      -2.527667      2.651833      0.237254
  H       2.591638      4.705948      0.827174
  H       1.023290      4.726060      1.620982
  H       2.501779      1.129380     -0.218436
  H       2.550124      2.625175     -1.160861
  H       3.625805      2.436765      0.212062
  H       3.057823      2.751960      2.378308
  H       1.411055      2.797426      3.019570
  H       2.048063      1.295315      2.335582
  H       0.853778      5.968380     -0.483718
  H       1.520082      4.633812     -1.397841
  B       0.060690     -0.599577      1.120835
  H       1.259601     -0.486849      1.099385
  C      -2.220832     -3.559571     -2.759859
  H      -1.973881     -3.772494     -3.806555
  H      -2.156402     -4.489857     -2.192921
  H      -3.257543     -3.214666     -2.723896
  C      -1.594341     -1.143463     -2.858504
  H      -0.959831     -0.347455     -2.463245
  H      -1.460693     -1.181988     -3.943640
  H      -2.632730     -0.871542     -2.648830
  C       0.467490     -4.389543     -2.115139
  H       1.535368     -4.564272     -1.955972
  H      -0.073654     -4.815954     -1.265637
  H       0.166123     -4.915641     -3.025565
  C       1.018757     -2.291444     -3.374093
  H       0.639169     -2.657311     -4.333747
  C      -1.295967     -2.487247     -2.188088
  C       0.230844     -2.880795     -2.207854
  O      -1.565954     -2.338695     -0.783814
  O       0.738947     -2.308815     -0.994647
  B      -0.351653     -2.002789     -0.166261
  H       0.975597     -1.200265     -3.373205
  H       2.069618     -2.582837     -3.292415
  H      -0.259389     -0.503167     -0.099506
  C       2.222935     -2.849785      1.726940
  N       0.811516     -3.008860      2.031089
  C      -0.239298     -2.240880      1.479256
  C      -1.412245     -2.752337      2.088458
  C      -1.072163     -3.772252      2.966410
  C       0.316998     -3.893691      2.898855
  H       2.755141     -3.732766      2.084504
  H       2.624479     -1.958341      2.214297
  H       2.339277     -2.752502      0.647435
  H      -2.404954     -2.396833      1.849037
  H      -1.720416     -4.383649      3.578342
  H       0.964819     -4.583952      3.425615
74
Coordinates from ORCA-job input_IRC_B E -1325.533826514814
  C      -0.571743      1.863061      1.679179
  C      -0.715199      0.497497      2.002331
  C      -1.431483      0.188086      3.164146
  C      -2.009057      1.160985      3.972106
  C      -1.879901      2.500969      3.630392
  C      -1.161140      2.841159      2.490264
  H      -1.525472     -0.850844      3.464233
  H      -2.551556      0.869420      4.867343
  H      -2.321855      3.275922      4.250959
  H      -1.038504      3.889231      2.230318
  N       0.218911      2.224657      0.532110
  C      -0.516833      2.748895     -0.652681
  C       1.569295      2.792603      0.821903
  C      -0.501164      4.293737     -0.693122
  C       0.093253      2.190615     -1.960126
  C      -1.976888      2.268017     -0.623620
  C       1.560916      4.336211      0.746233
  C       2.617838      2.214546     -0.153413
  C       2.038449      2.383221      2.228005
  H      -0.943382      4.636852     -1.637369
  H      -1.148386      4.674441      0.108391
  C       0.902709      4.874051     -0.523188
  H       0.970795      2.742590     -2.299173
  H       0.389646      1.148717     -1.814037
  H      -0.642917      2.240099     -2.768998
  H      -2.032875      1.174859     -0.598851
  H      -2.482505      2.615308     -1.529912
  H      -2.527506      2.651882      0.237106
  H       2.591200      4.705793      0.827171
  H       1.022787      4.725579      1.620929
  H       2.501902      1.129522     -0.218330
  H       2.549895      2.625397     -1.160834
  H       3.625854      2.437150      0.212113
  H       3.057711      2.752392      2.378054
  H       1.410924      2.797372      3.019345
  H       2.048552      1.295288      2.335888
  H       0.853346      5.968176     -0.483537
  H       1.520203      4.633982     -1.397803
  B       0.059830     -0.602039      1.124863
  H       1.257726     -0.486694      1.097299
  C      -2.220562     -3.558175     -2.757387
  H      -1.973352     -3.770033     -3.804115
  H      -2.156212     -4.489140     -2.191492
  H      -3.257364     -3.213418     -2.722397
  C      -1.593583     -1.143704     -2.858422
  H      -0.958701     -0.347956     -2.463398
  H      -1.460595     -1.183551     -3.943557
  H      -2.632049     -0.872425     -2.648302
  C       0.467420     -4.389574     -2.114842
  H       1.535125     -4.564535     -1.955826
  H      -0.074016     -4.815919     -1.265453
  H       0.165832     -4.915323     -3.025644
  C       1.018501     -2.292364     -3.374093
  H       0.638215     -2.658089     -4.333579
  C      -1.294893     -2.486322     -2.186547
  C       0.231616     -2.880763     -2.207320
  O      -1.563236     -2.334925     -0.783048
  O       0.742100     -2.307296     -0.995233
  B      -0.348484     -1.997684     -0.166661
  H       0.974776     -1.201230     -3.372288
  H       2.069163     -2.583821     -3.291713
  H      -0.267997     -0.505934     -0.093951
  C       2.223290     -2.850060      1.725372
  N       0.811539     -3.009845      2.028955
  C      -0.238987     -2.241494      1.478095
  C      -1.412175     -2.753347      2.085919
  C      -1.072338     -3.772220      2.963663
  C       0.316880     -3.893719      2.896553
  H       2.755540     -3.732702      2.083538
  H       2.623022     -1.958464      2.213683
  H       2.340790     -2.752777      0.645995
  H      -2.406424     -2.399108      1.847978
  H      -1.722866     -4.380246      3.576073
  H       0.966551     -4.580580      3.424531
74
Coordinates from ORCA-job input_IRC_B E -1325.533981142058
  C      -0.571161      1.861972      1.679333
  C      -0.714688      0.496608      2.004241
  C      -1.431698      0.187883      3.165721
  C      -2.009721      1.161296      3.972714
  C      -1.880031      2.500983      3.629662
  C      -1.160968      2.840575      2.489597
  H      -1.525925     -0.851154      3.465662
  H      -2.552425      0.870287      4.867704
  H      -2.321974      3.276369      4.249573
  H      -1.038237      3.888298      2.228888
  N       0.219355      2.223067      0.531912
  C      -0.516498      2.748214     -0.652640
  C       1.569357      2.792124      0.821820
  C      -0.500984      4.293058     -0.693046
  C       0.093401      2.190383     -1.960315
  C      -1.976526      2.267728     -0.623564
  C       1.560519      4.335773      0.746249
  C       2.618045      2.214667     -0.153444
  C       2.038576      2.383163      2.227977
  H      -0.943195      4.636039     -1.637373
  H      -1.148350      4.673683      0.108370
  C       0.902583      4.873804     -0.523147
  H       0.970911      2.742376     -2.299310
  H       0.389612      1.148417     -1.814343
  H      -0.642891      2.240223     -2.769110
  H      -2.032892      1.174611     -0.598748
  H      -2.481579      2.615256     -1.530173
  H      -2.527246      2.651948      0.236878
  H       2.590700      4.705550      0.827296
  H       1.022154      4.724997      1.620877
  H       2.502200      1.129609     -0.218314
  H       2.549703      2.625597     -1.160785
  H       3.625955      2.437608      0.212090
  H       3.057642      2.752924      2.377835
  H       1.410799      2.797286      3.019093
  H       2.049197      1.295249      2.336223
  H       0.852828      5.967875     -0.483276
  H       1.520305      4.634157     -1.397731
  B       0.058974     -0.604144      1.128126
  H       1.256247     -0.486467      1.094834
  C      -2.220154     -3.556846     -2.754575
  H      -1.972681     -3.767336     -3.801373
  H      -2.156042     -4.488132     -2.189509
  H      -3.256974     -3.211674     -2.720024
  C      -1.592561     -1.143866     -2.858457
  H      -0.957415     -0.348114     -2.463984
  H      -1.460349     -1.185232     -3.943542
  H      -2.631050     -0.873189     -2.647667
  C       0.467218     -4.389496     -2.114123
  H       1.535072     -4.565093     -1.955555
  H      -0.074397     -4.815954     -1.265171
  H       0.165522     -4.914604     -3.025308
  C       1.018198     -2.293202     -3.374196
  H       0.637260     -2.659087     -4.333301
  C      -1.293618     -2.485166     -2.184769
  C       0.232446     -2.880322     -2.206362
  O      -1.561158     -2.331345     -0.782326
  O       0.744336     -2.304584     -0.995769
  B      -0.345639     -1.992714     -0.167210
  H       0.974103     -1.202323     -3.371562
  H       2.068857     -2.584960     -3.291350
  H      -0.277146     -0.507990     -0.089143
  C       2.223327     -2.850330      1.723742
  N       0.811516     -3.010383      2.026340
  C      -0.238621     -2.242065      1.476974
  C      -1.412664     -2.753926      2.082856
  C      -1.072537     -3.772585      2.960893
  C       0.316854     -3.894174      2.894438
  H       2.756083     -3.732685      2.082371
  H       2.621654     -1.958476      2.212732
  H       2.342411     -2.753038      0.644336
  H      -2.407090     -2.401553      1.846176
  H      -1.725618     -4.377422      3.573895
  H       0.968688     -4.578060      3.423944
