74
Coordinates from ORCA-job input_IRC_B E -1325.533981142058
  C          -0.57116073783624      1.86197154483245      1.67933275373050
  C          -0.71468769809145      0.49660777366452      2.00424102278645
  C          -1.43169756610456      0.18788267312836      3.16572083530259
  C          -2.00972087393528      1.16129604610966      3.97271388743839
  C          -1.88003053145514      2.50098261256885      3.62966175077521
  C          -1.16096798569607      2.84057454756583      2.48959699633094
  H          -1.52592522202649     -0.85115399668999      3.46566207989809
  H          -2.55242538834549      0.87028697476455      4.86770363716326
  H          -2.32197446581337      3.27636854054868      4.24957321081625
  H          -1.03823734641204      3.88829828846483      2.22888756864762
  N           0.21935490400731      2.22306728464307      0.53191175466353
  C          -0.51649829990602      2.74821366046553     -0.65264003227998
  C           1.56935706947824      2.79212366029701      0.82182012288165
  C          -0.50098413673968      4.29305805584491     -0.69304642016843
  C           0.09340092480372      2.19038257818077     -1.96031450435071
  C          -1.97652602206160      2.26772844700417     -0.62356425871120
  C           1.56051876479242      4.33577287308353      0.74624913619815
  C           2.61804455788381      2.21466708413684     -0.15344399670516
  C           2.03857637320769      2.38316252540531      2.22797662140557
  H          -0.94319534033795      4.63603939271719     -1.63737320667664
  H          -1.14834969430234      4.67368344590430      0.10836988131767
  C           0.90258292965063      4.87380431408547     -0.52314665734569
  H           0.97091094629950      2.74237581339383     -2.29931025099029
  H           0.38961164516845      1.14841712069419     -1.81434294277142
  H          -0.64289133996581      2.24022308985585     -2.76910990043052
  H          -2.03289231018595      1.17461108209826     -0.59874778614180
  H          -2.48157874940502      2.61525629028879     -1.53017340225750
  H          -2.52724562770986      2.65194802111191      0.23687773017388
  H           2.59069970594708      4.70555002113090      0.82729595867437
  H           1.02215447141888      4.72499650354205      1.62087736570513
  H           2.50220033021031      1.12960854414018     -0.21831422038209
  H           2.54970349132471      2.62559731369325     -1.16078501724479
  H           3.62595520564637      2.43760800181097      0.21208972129242
  H           3.05764198439341      2.75292400102307      2.37783474778510
  H           1.41079913934368      2.79728630723430      3.01909331217035
  H           2.04919679258226      1.29524905099944      2.33622265996128
  H           0.85282835375851      5.96787489824516     -0.48327638371593
  H           1.52030484749060      4.63415732450094     -1.39773145075025
  B           0.05897359214397     -0.60414392492348      1.12812621362218
  H           1.25624683785599     -0.48646736006969      1.09483393398844
  C          -2.22015366522759     -3.55684648024826     -2.75457505747517
  H          -1.97268081470653     -3.76733591684371     -3.80137318701526
  H          -2.15604166759014     -4.48813245339618     -2.18950865576128
  H          -3.25697351195811     -3.21167445554848     -2.72002396255612
  C          -1.59256147888112     -1.14386556717074     -2.85845674779182
  H          -0.95741465414766     -0.34811424554983     -2.46398438545266
  H          -1.46034894055106     -1.18523182028222     -3.94354231745973
  H          -2.63105041896850     -0.87318921856174     -2.64766700351566
  C           0.46721819063826     -4.38949550137866     -2.11412311884002
  H           1.53507242919399     -4.56509342512736     -1.95555459309051
  H          -0.07439741592290     -4.81595446576044     -1.26517100277327
  H           0.16552201663276     -4.91460407376209     -3.02530796504373
  C           1.01819779581526     -2.29320171650748     -3.37419606635192
  H           0.63725975520453     -2.65908667835386     -4.33330122857154
  C          -1.29361820440460     -2.48516605419484     -2.18476876025901
  C           0.23244638278877     -2.88032242850110     -2.20636233473070
  O          -1.56115840322640     -2.33134526084936     -0.78232610855472
  O           0.74433617390735     -2.30458445669139     -0.99576893905931
  B          -0.34563917546528     -1.99271409847301     -0.16721015628930
  H           0.97410255614692     -1.20232343013303     -3.37156165434164
  H           2.06885712536664     -2.58496010760759     -3.29135023936569
  H          -0.27714639553072     -0.50799022128144     -0.08914293754958
  C           2.22332701406701     -2.85032987967084      1.72374194702483
  N           0.81151598414849     -3.01038295126076      2.02633983351526
  C          -0.23862068132559     -2.24206490246159      1.47697424015608
  C          -1.41266390143625     -2.75392582316733      2.08285563308360
  C          -1.07253697743100     -3.77258480398028      2.96089291151460
  C           0.31685402467454     -3.89417409846545      2.89443840474776
  H           2.75608293006551     -3.73268490069945      2.08237123219437
  H           2.62165401736004     -1.95847611700376      2.21273239096305
  H           2.34241117946744     -2.75303808594445      0.64433552333971
  H          -2.40708994506358     -2.40155306472023      1.84617571674797
  H          -1.72561785650510     -4.37742161171161      3.57389522183381
  H           0.96868753143943     -4.57805991342821      3.42394439453328
