74
Coordinates from ORCA-job input E -1325.547019724469
  C          -2.06614933141047     -1.98752778238853      1.28729056760242
  C          -0.72006583813261     -1.65977832763748      1.16697770150198
  C          -0.29357719818628     -0.38946943058629      0.75067003233524
  C          -1.28101744918042      0.56621450977698      0.42574517129389
  C          -2.63450809966588      0.22527763200263      0.55148885591356
  C          -3.03106568810157     -1.03588784989347      0.98233843032206
  H          -2.35813563682674     -2.98220918405935      1.61334158561839
  H           0.02867583450333     -2.41324883977097      1.40318139680496
  H          -3.39026108476817      0.96279951153892      0.30303781043601
  H          -4.08829175406411     -1.27093393010330      1.07080781680050
  B           1.26614892784073     -0.05388728854785      0.65816291970150
  H           1.80767838401381     -1.08901757559289      0.10479622010264
  C           2.05741521270256      0.08266454451410      2.12840535071194
  C           1.51244670062584     -0.21588187383999      3.39327174094894
  C           2.07564121184939      0.62626323309636      4.34361441689835
  H           0.78636162345974     -0.99912120179159      3.56233289243845
  C           2.96186819244396      1.45445576451219      3.65549612134852
  H           1.87977906639231      0.65203500116636      5.40567840036931
  H           3.59553857878415      2.24899545479564      4.02774284081255
  H           1.64987224908336      0.82759970375139     -0.05472652534338
  B           2.61200311574482     -1.25067339975477      1.21108533832779
  O           3.93307364317946     -1.16755509865963      0.71875681584698
  O           2.37045113562360     -2.51658151746650      1.78389243083476
  C           4.64347122308896     -2.25046922533795      1.33906659679356
  C           3.51843477804070     -3.32625124185438      1.49151946211709
  C           5.79932878100761     -2.65322890359544      0.43531155441163
  H           6.52736546155079     -1.83910936352330      0.38028276977880
  H           6.30824518662933     -3.53885132930784      0.82957950148431
  H           5.45524139383439     -2.86669327696841     -0.57814952109004
  C           5.16959461587291     -1.75345193899562      2.68959538442495
  H           5.77672224602865     -0.85925197876648      2.52151637428773
  H           4.34746549673892     -1.48487652770472      3.36083083783541
  H           5.79386591807889     -2.50273054277124      3.18541673728892
  C           3.72022637817441     -4.30558844486498      2.63920613783959
  H           2.88533808858058     -5.01077767442454      2.67148789482381
  H           4.64499540102940     -4.87712405830087      2.50822113996223
  H           3.75884912417049     -3.78559795808858      3.59815475529815
  C           3.24564073213126     -4.07869485530250      0.18723104731303
  H           4.03921177395978     -4.79517151452257     -0.04551642457626
  H           2.30537397851783     -4.62698682442048      0.28878514778586
  H           3.14440563047098     -3.38479628921728     -0.65234439139043
  N           2.95563460097039      1.14212124688431      2.35442364529570
  C           3.73225814296574      1.82457317317965      1.33504819923974
  H           4.27378667535249      1.08597016730398      0.74283864139957
  H           3.07267502386820      2.40201253471802      0.68289448934386
  H           4.43667339842358      2.49650885363307      1.82750801178651
  C          -1.01519986233756      2.08703493961337     -1.51354830362097
  C          -1.01104628249985      2.99362741304264      0.90225630514545
  C          -0.09960958853330      3.26229674140080     -1.90319659582535
  C          -0.10698509013693      4.14179387700108      0.41471097790120
  C          -0.32425103205095      4.50253256563179     -1.04850263998383
  H          -0.24637306237195      3.48721448001890     -2.96637263041207
  H           0.94132910356137      2.93431417734062     -1.78170448883046
  H          -0.26227331563644      5.01310054056204      1.06227184501697
  H           0.93703759184352      3.82586106487924      0.54519983938389
  H           0.36720636444727      5.29864703926790     -1.34732143542165
  H          -1.33487435399081      4.90138644982727     -1.20208628663494
  N          -0.89134683893642      1.86420930786700     -0.05047006047244
  C          -0.50992777901037      0.84452206399801     -2.26408679440915
  H           0.50100897186713      0.57826938605359     -1.94791130288014
  H          -1.15898140316067     -0.02030370238890     -2.10407663054193
  H          -0.49091228995274      1.05699917651211     -3.33800050112101
  C          -2.45048949434895      2.35831575126385     -2.02131920750926
  H          -2.44444669608826      2.44083115325257     -3.11368138682029
  H          -3.12040608240489      1.53485849573326     -1.76159177716508
  H          -2.87783410940916      3.28262149720305     -1.62833386544944
  C          -2.44692616862590      3.52286230587977      1.12693431643984
  H          -3.10198041886932      2.73105990849721      1.49909513938518
  H          -2.43385360418906      4.31651110651725      1.88188453462604
  H          -2.89615829106488      3.93924340222032      0.22373130375113
  C          -0.47755559662470      2.55366364939521      2.27228102376914
  H           0.55014348492951      2.19524365655238      2.18837528997162
  H          -0.48931787589228      3.40592933188512      2.95950288374287
  H          -1.08064781591052      1.75550722815870      2.71271450488358
