35
Coordinates from ORCA-job input_IRC_F E -640.970237351492
  H       1.518888     -0.309709      2.954250
  C       2.252425     -0.171099      2.166137
  C       2.877506      1.060085      2.005649
  C       2.579410     -1.222454      1.316781
  C       3.823419      1.291767      0.994625
  H       2.620971      1.869837      2.684901
  C       3.523547     -1.024392      0.317083
  H       2.103852     -2.191563      1.432112
  C       4.141694      0.217957      0.144085
  H       3.781579     -1.842485     -0.349313
  B       4.327998      2.787379      0.892263
  H       6.043477      2.102389     -0.169619
  H       6.233714      2.704504      0.217222
  C       3.705407      3.710275     -0.160144
  C       2.546778      3.491256     -0.902400
  C       2.229383      4.669842     -1.603052
  H       1.984651      2.567057     -0.891133
  C       3.209102      5.590143     -1.284476
  H       1.388458      4.841919     -2.258640
  H       3.349763      6.607828     -1.621392
  N       4.079240      5.022198     -0.410666
  C       5.275912      5.656003      0.099003
  H       5.358818      5.491959      1.175020
  H       6.170997      5.255087     -0.386363
  H       5.220580      6.729091     -0.090295
  N       5.115876      0.398791     -0.896215
  H       4.936151      3.255162      1.820963
  C       4.529886      0.667309     -2.199578
  H       5.318875      0.970724     -2.895732
  H       4.015315     -0.212603     -2.625653
  H       3.815839      1.487973     -2.119120
  C       6.152573     -0.614655     -0.946866
  H       5.812781     -1.588371     -1.341690
  H       6.960919     -0.261448     -1.596072
  H       6.560966     -0.771497      0.054368
35
Coordinates from ORCA-job input_IRC_F E -640.970529104127
  H       1.518735     -0.309883      2.954472
  C       2.252376     -0.171490      2.166331
  C       2.877321      1.059703      2.006182
  C       2.579493     -1.222308      1.317031
  C       3.821800      1.291831      0.995439
  H       2.621060      1.869896      2.684923
  C       3.523734     -1.024239      0.317041
  H       2.103837     -2.191755      1.432034
  C       4.141023      0.218172      0.144967
  H       3.781581     -1.842701     -0.349359
  B       4.327312      2.786125      0.892190
  H       6.043278      2.098091     -0.172980
  H       6.238862      2.709274      0.219560
  C       3.704209      3.710903     -0.159543
  C       2.546823      3.491153     -0.902648
  C       2.229573      4.670177     -1.603587
  H       1.984266      2.566921     -0.891120
  C       3.209030      5.590297     -1.284720
  H       1.388257      4.842022     -2.258931
  H       3.349798      6.608059     -1.621498
  N       4.079021      5.022236     -0.410418
  C       5.275880      5.656054      0.099023
  H       5.358855      5.492087      1.175140
  H       6.171138      5.255219     -0.386387
  H       5.220667      6.729248     -0.090298
  N       5.116023      0.400199     -0.895810
  H       4.935595      3.254617      1.820785
  C       4.529700      0.667060     -2.200382
  H       5.318954      0.970671     -2.895928
  H       4.015270     -0.212633     -2.625617
  H       3.815885      1.487921     -2.119326
  C       6.152804     -0.615086     -0.947101
  H       5.812512     -1.588281     -1.341599
  H       6.961071     -0.261662     -1.596162
  H       6.561001     -0.771638      0.054337
35
Coordinates from ORCA-job input_IRC_F E -640.970644135659
  H       1.518515     -0.310176      2.954781
  C       2.252234     -0.172037      2.166683
  C       2.876903      1.059338      2.006938
  C       2.579565     -1.222277      1.317274
  C       3.820285      1.291735      0.996031
  H       2.621068      1.869978      2.685103
  C       3.523859     -1.024211      0.317054
  H       2.103853     -2.191943      1.431932
  C       4.140475      0.218482      0.145599
  H       3.781584     -1.842836     -0.349342
  B       4.326442      2.785197      0.892145
  H       6.044115      2.096175     -0.174950
  H       6.244182      2.711706      0.220206
  C       3.703039      3.711377     -0.158802
  C       2.546635      3.491142     -0.902960
  C       2.229708      4.670405     -1.604248
  H       1.983850      2.566885     -0.891136
  C       3.209028      5.590487     -1.284988
  H       1.388086      4.842168     -2.259296
  H       3.349847      6.608312     -1.621622
  N       4.078692      5.022352     -0.410080
  C       5.275829      5.656124      0.099065
  H       5.358906      5.492249      1.175252
  H       6.171233      5.255376     -0.386396
  H       5.220759      6.729391     -0.090292
  N       5.116174      0.401464     -0.895424
  H       4.934895      3.253871      1.820557
  C       4.529619      0.666936     -2.200892
  H       5.319036      0.970582     -2.896205
  H       4.015206     -0.212774     -2.625561
  H       3.815890      1.487884     -2.119672
  C       6.152855     -0.615185     -0.947213
  H       5.812101     -1.588147     -1.341509
  H       6.961226     -0.261943     -1.596267
  H       6.561051     -0.771827      0.054275
35
Coordinates from ORCA-job input_IRC_F E -640.970801100908
  H       1.517805     -0.311191      2.955741
  C       2.251841     -0.173262      2.167779
  C       2.875691      1.058257      2.008630
  C       2.579776     -1.222411      1.317737
  C       3.817062      1.291516      0.997135
  H       2.620818      1.870248      2.685981
  C       3.523975     -1.024169      0.317315
  H       2.103920     -2.192468      1.431666
  C       4.139448      0.218997      0.146429
  H       3.781623     -1.843043     -0.349219
  B       4.323858      2.783689      0.892293
  H       6.047752      2.095072     -0.177653
  H       6.257119      2.714144      0.219265
  C       3.700326      3.712333     -0.157295
  C       2.546010      3.491430     -0.903592
  C       2.230010      4.670790     -1.605880
  H       1.982768      2.566974     -0.891280
  C       3.209111      5.590689     -1.285550
  H       1.387764      4.842593     -2.260333
  H       3.350014      6.608956     -1.621962
  N       4.077660      5.022696     -0.409160
  C       5.275668      5.656350      0.099212
  H       5.359048      5.492670      1.175492
  H       6.171282      5.255749     -0.386387
  H       5.220959      6.729668     -0.090248
  N       5.116351      0.403916     -0.894669
  H       4.933160      3.251831      1.819997
  C       4.529642      0.666773     -2.201563
  H       5.319163      0.970272     -2.896902
  H       4.015129     -0.213178     -2.625280
  H       3.815794      1.487874     -2.120725
  C       6.152662     -0.614944     -0.947298
  H       5.810887     -1.587585     -1.341255
  H       6.961480     -0.262679     -1.596482
  H       6.561171     -0.772297      0.054101
35
Coordinates from ORCA-job input_IRC_F E -640.970952202680
  H       1.516963     -0.312771      2.956921
  C       2.251290     -0.174360      2.169125
  C       2.874358      1.057631      2.009934
  C       2.579831     -1.222914      1.318132
  C       3.815259      1.291082      0.997165
  H       2.620093      1.870055      2.687324
  C       3.523792     -1.024338      0.317756
  H       2.104083     -2.193069      1.431405
  C       4.138917      0.219314      0.146174
  H       3.781687     -1.842917     -0.348849
  B       4.320322      2.783962      0.892967
  H       6.053827      2.099239     -0.177180
  H       6.269278      2.711448      0.214661
  C       3.698613      3.712605     -0.156418
  C       2.544875      3.492127     -0.904011
  C       2.230071      4.670835     -1.607297
  H       1.981704      2.567558     -0.891656
  C       3.209343      5.590776     -1.285984
  H       1.387834      4.843106     -2.261560
  H       3.350250      6.609207     -1.622241
  N       4.076476      5.023239     -0.408216
  C       5.275315      5.656544      0.099458
  H       5.359200      5.493086      1.175661
  H       6.170826      5.255981     -0.386350
  H       5.221010      6.729813     -0.090155
  N       5.116085      0.404654     -0.894367
  H       4.931779      3.249751      1.819640
  C       4.529784      0.667015     -2.201282
  H       5.319122      0.969768     -2.897418
  H       4.015303     -0.213577     -2.624671
  H       3.815616      1.487919     -2.122038
  C       6.151988     -0.614009     -0.946962
  H       5.809367     -1.586581     -1.340975
  H       6.961315     -0.263308     -1.596557
  H       6.561170     -0.772612      0.053902
35
Coordinates from ORCA-job input_IRC_F E -640.971099007294
  H       1.516459     -0.314402      2.957889
  C       2.250797     -0.175271      2.170145
  C       2.873469      1.057004      2.010667
  C       2.579733     -1.223319      1.318704
  C       3.813106      1.291084      0.997581
  H       2.619355      1.869307      2.688362
  C       3.523652     -1.024189      0.318124
  H       2.104277     -2.193730      1.431243
  C       4.137902      0.219453      0.146583
  H       3.781750     -1.842979     -0.348510
  B       4.316660      2.783714      0.893878
  H       6.058779      2.098351     -0.180030
  H       6.282988      2.714152      0.213366
  C       3.697004      3.713177     -0.155832
  C       2.544024      3.492648     -0.904457
  C       2.230143      4.671206     -1.608344
  H       1.980519      2.568133     -0.892116
  C       3.209354      5.590896     -1.286354
  H       1.388055      4.843611     -2.262906
  H       3.350553      6.609247     -1.622519
  N       4.075553      5.023662     -0.407526
  C       5.274844      5.656675      0.099725
  H       5.359286      5.493424      1.175912
  H       6.170148      5.256005     -0.386393
  H       5.220899      6.730018     -0.090049
  N       5.115574      0.405610     -0.894015
  H       4.930820      3.248174      1.819532
  C       4.529570      0.666955     -2.201633
  H       5.319095      0.969233     -2.897603
  H       4.015535     -0.213788     -2.624032
  H       3.815502      1.487987     -2.123106
  C       6.151550     -0.613861     -0.946847
  H       5.807939     -1.585671     -1.340720
  H       6.960876     -0.263600     -1.596566
  H       6.560976     -0.772655      0.053885
35
Coordinates from ORCA-job input_IRC_F E -640.971235568342
  H       1.516128     -0.315951      2.958804
  C       2.250237     -0.176470      2.171019
  C       2.872184      1.056339      2.011650
  C       2.579689     -1.223763      1.319057
  C       3.811364      1.290792      0.997573
  H       2.618500      1.868557      2.689477
  C       3.523306     -1.024448      0.318520
  H       2.104457     -2.194425      1.431220
  C       4.137238      0.219931      0.146497
  H       3.781770     -1.842849     -0.348011
  B       4.313836      2.784178      0.894666
  H       6.065853      2.102758     -0.179435
  H       6.294331      2.711534      0.208629
  C       3.695630      3.713380     -0.155159
  C       2.543089      3.493179     -0.904927
  C       2.229951      4.671399     -1.609345
  H       1.979394      2.568833     -0.892635
  C       3.209476      5.591132     -1.286573
  H       1.388426      4.844132     -2.264262
  H       3.350906      6.609374     -1.622876
  N       4.074657      5.023964     -0.406862
  C       5.274392      5.656870      0.099967
  H       5.359267      5.493685      1.176132
  H       6.169369      5.255923     -0.386442
  H       5.220687      6.730145     -0.089905
  N       5.115110      0.406252     -0.893628
  H       4.929809      3.246790      1.819413
  C       4.529577      0.667060     -2.201279
  H       5.319150      0.968712     -2.897758
  H       4.015504     -0.214296     -2.623627
  H       3.815262      1.488144     -2.124131
  C       6.150661     -0.613095     -0.946514
  H       5.806529     -1.585123     -1.340566
  H       6.960328     -0.263740     -1.596581
  H       6.560683     -0.772640      0.053929
35
Coordinates from ORCA-job input_IRC_F E -640.971294986197
  H       1.516006     -0.316564      2.959161
  C       2.250078     -0.176719      2.171330
  C       2.871829      1.056040      2.011820
  C       2.579622     -1.224054      1.319181
  C       3.810649      1.290878      0.997733
  H       2.618149      1.868219      2.689879
  C       3.523253     -1.024309      0.318634
  H       2.104542     -2.194697      1.431227
  C       4.136822      0.219902      0.146613
  H       3.781799     -1.842895     -0.347883
  B       4.312641      2.784102      0.894963
  H       6.067908      2.102315     -0.180567
  H       6.299308      2.712779      0.208241
  C       3.695155      3.713537     -0.154997
  C       2.542780      3.493362     -0.905085
  C       2.230013      4.671571     -1.609619
  H       1.978951      2.569062     -0.892847
  C       3.209434      5.591136     -1.286656
  H       1.388552      4.844324     -2.264800
  H       3.351058      6.609391     -1.623003
  N       4.074337      5.024119     -0.406649
  C       5.274194      5.656888      0.100066
  H       5.359236      5.493767      1.176215
  H       6.169071      5.255873     -0.386467
  H       5.220579      6.730199     -0.089850
  N       5.114857      0.406530     -0.893508
  H       4.929561      3.246389      1.819393
  C       4.529428      0.667032     -2.201391
  H       5.319136      0.968496     -2.897712
  H       4.015549     -0.214347     -2.623417
  H       3.815221      1.488152     -2.124463
  C       6.150441     -0.613068     -0.946442
  H       5.806058     -1.584822     -1.340458
  H       6.960026     -0.263743     -1.596542
  H       6.560507     -0.772584      0.053938
35
Coordinates from ORCA-job input_IRC_F E -640.971374443409
  H       1.515862     -0.317495      2.959670
  C       2.249831     -0.176946      2.171873
  C       2.871155      1.055409      2.012143
  C       2.579526     -1.224646      1.319286
  C       3.809600      1.291023      0.997945
  H       2.617593      1.867739      2.690517
  C       3.523149     -1.024062      0.318843
  H       2.104695     -2.195073      1.431251
  C       4.136235      0.219768      0.146663
  H       3.781846     -1.842957     -0.347689
  B       4.310965      2.784138      0.895407
  H       6.071631      2.103053     -0.181389
  H       6.306334      2.713250      0.206724
  C       3.694459      3.713711     -0.154697
  C       2.542253      3.493661     -0.905378
  C       2.230163      4.671827     -1.609988
  H       1.978294      2.569434     -0.893172
  C       3.209337      5.591042     -1.286754
  H       1.388731      4.844624     -2.265644
  H       3.351307      6.609486     -1.623220
  N       4.073829      5.024348     -0.406347
  C       5.273914      5.656929      0.100225
  H       5.359176      5.493881      1.176338
  H       6.168603      5.255790     -0.386501
  H       5.220404      6.730267     -0.089761
  N       5.114493      0.406944     -0.893320
  H       4.929143      3.245776      1.819319
  C       4.529284      0.667023     -2.201388
  H       5.319140      0.968179     -2.897669
  H       4.015546     -0.214512     -2.623156
  H       3.815109      1.488205     -2.124971
  C       6.149997     -0.612864     -0.946281
  H       5.805323     -1.584460     -1.340322
  H       6.959583     -0.263727     -1.596503
  H       6.560238     -0.772504      0.053985
35
Coordinates from ORCA-job input_IRC_F E -640.971459108582
  H       1.515729     -0.318489      2.960229
  C       2.249511     -0.177593      2.172327
  C       2.870441      1.054980      2.012569
  C       2.579430     -1.225010      1.319503
  C       3.808486      1.290980      0.998063
  H       2.616967      1.867149      2.691180
  C       3.522945     -1.024095      0.319026
  H       2.104842     -2.195572      1.431298
  C       4.135655      0.219942      0.146745
  H       3.781888     -1.842949     -0.347434
  B       4.309201      2.784255      0.895897
  H       6.075977      2.104235     -0.182055
  H       6.313849      2.713427      0.204813
  C       3.693685      3.713871     -0.154396
  C       2.541729      3.493959     -0.905656
  C       2.230110      4.672031     -1.610497
  H       1.977578      2.569849     -0.893545
  C       3.209346      5.591158     -1.286858
  H       1.389011      4.844944     -2.266520
  H       3.351573      6.609518     -1.623442
  N       4.073307      5.024532     -0.405985
  C       5.273598      5.656989      0.100384
  H       5.359088      5.493985      1.176479
  H       6.168087      5.255684     -0.386536
  H       5.220197      6.730326     -0.089654
  N       5.114075      0.407347     -0.893085
  H       4.928712      3.245148      1.819201
  C       4.529129      0.667024     -2.201332
  H       5.319149      0.967834     -2.897608
  H       4.015503     -0.214709     -2.622898
  H       3.814963      1.488274     -2.125512
  C       6.149470     -0.612585     -0.946097
  H       5.804526     -1.584101     -1.340172
  H       6.959073     -0.263678     -1.596451
  H       6.559916     -0.772400      0.054060
35
Coordinates from ORCA-job input_IRC_F E -640.971543560279
  H       1.515602     -0.319486      2.960790
  C       2.249206     -0.178208      2.172762
  C       2.869718      1.054531      2.012981
  C       2.579322     -1.225402      1.319713
  C       3.807377      1.290964      0.998193
  H       2.616319      1.866547      2.691835
  C       3.522746     -1.024107      0.319190
  H       2.104995     -2.196088      1.431360
  C       4.135052      0.220090      0.146837
  H       3.781932     -1.842949     -0.347193
  B       4.307442      2.784365      0.896382
  H       6.080384      2.105295     -0.182801
  H       6.321369      2.713767      0.202978
  C       3.692934      3.714022     -0.154104
  C       2.541208      3.494252     -0.905943
  C       2.230085      4.672244     -1.610975
  H       1.976869      2.570257     -0.893928
  C       3.209341      5.591245     -1.286951
  H       1.389288      4.845265     -2.267402
  H       3.351850      6.609554     -1.623664
  N       4.072792      5.024714     -0.405640
  C       5.273276      5.657033      0.100545
  H       5.358983      5.494073      1.176619
  H       6.167572      5.255571     -0.386566
  H       5.219978      6.730376     -0.089541
  N       5.113640      0.407744     -0.892853
  H       4.928326      3.244566      1.819052
  C       4.528949      0.667022     -2.201286
  H       5.319148      0.967492     -2.897519
  H       4.015442     -0.214886     -2.622643
  H       3.814809      1.488343     -2.126031
  C       6.148941     -0.612324     -0.945908
  H       5.803750     -1.583743     -1.340010
  H       6.958534     -0.263602     -1.596385
  H       6.559565     -0.772277      0.054148
35
Coordinates from ORCA-job input_IRC_F E -640.971627792063
  H       1.515491     -0.320479      2.961344
  C       2.248888     -0.178854      2.173184
  C       2.868995      1.054096      2.013384
  C       2.579214     -1.225789      1.319916
  C       3.806270      1.290937      0.998324
  H       2.615650      1.865937      2.692481
  C       3.522526     -1.024140      0.319352
  H       2.105156     -2.196619      1.431436
  C       4.134446      0.220257      0.146930
  H       3.781979     -1.842946     -0.346963
  B       4.305703      2.784483      0.896871
  H       6.084906      2.106390     -0.183527
  H       6.328831      2.714102      0.201106
  C       3.692189      3.714162     -0.153829
  C       2.540698      3.494536     -0.906227
  C       2.230039      4.672450     -1.611455
  H       1.976170      2.570659     -0.894320
  C       3.209346      5.591351     -1.287040
  H       1.389579      4.845581     -2.268274
  H       3.352132      6.609576     -1.623880
  N       4.072292      5.024880     -0.405299
  C       5.272955      5.657071      0.100707
  H       5.358861      5.494142      1.176761
  H       6.167059      5.255451     -0.386591
  H       5.219748      6.730417     -0.089422
  N       5.113189      0.408133     -0.892616
  H       4.927983      3.244025      1.818867
  C       4.528756      0.667022     -2.201228
  H       5.319140      0.967155     -2.897412
  H       4.015357     -0.215053     -2.622402
  H       3.814642      1.488416     -2.126530
  C       6.148398     -0.612054     -0.945710
  H       5.802992     -1.583400     -1.339841
  H       6.957978     -0.263499     -1.596307
  H       6.559190     -0.772139      0.054254
35
Coordinates from ORCA-job input_IRC_F E -640.971711877625
  H       1.515388     -0.321469      2.961893
  C       2.248567     -0.179508      2.173595
  C       2.868267      1.053666      2.013777
  C       2.579103     -1.226180      1.320114
  C       3.805162      1.290912      0.998463
  H       2.614963      1.865320      2.693119
  C       3.522297     -1.024179      0.319506
  H       2.105323     -2.197160      1.431524
  C       4.133830      0.220424      0.147027
  H       3.782026     -1.842939     -0.346743
  B       4.303978      2.784604      0.897359
  H       6.089500      2.107462     -0.184266
  H       6.336258      2.714482      0.199232
  C       3.691453      3.714294     -0.153567
  C       2.540195      3.494813     -0.906512
  C       2.229986      4.672651     -1.611930
  H       1.975478      2.571051     -0.894719
  C       3.209356      5.591460     -1.287125
  H       1.389875      4.845894     -2.269138
  H       3.352419      6.609592     -1.624092
  N       4.071801      5.025034     -0.404969
  C       5.272635      5.657101      0.100871
  H       5.358726      5.494195      1.176905
  H       6.166552      5.255325     -0.386610
  H       5.219512      6.730449     -0.089296
  N       5.112726      0.408516     -0.892379
  H       4.927683      3.243521      1.818647
  C       4.528548      0.667024     -2.201167
  H       5.319123      0.966826     -2.897290
  H       4.015253     -0.215208     -2.622166
  H       3.814464      1.488493     -2.127009
  C       6.147849     -0.611784     -0.945506
  H       5.802249     -1.583063     -1.339663
  H       6.957407     -0.263374     -1.596216
  H       6.558795     -0.771985      0.054374
35
Coordinates from ORCA-job input_IRC_F E -640.971795840609
  H       1.515288     -0.322459      2.962439
  C       2.248249     -0.180152      2.173997
  C       2.867531      1.053226      2.014167
  C       2.578989     -1.226580      1.320309
  C       3.804057      1.290898      0.998606
  H       2.614259      1.864700      2.693748
  C       3.522066     -1.024211      0.319653
  H       2.105495     -2.197714      1.431622
  C       4.133206      0.220586      0.147127
  H       3.782071     -1.842932     -0.346534
  B       4.302269      2.784723      0.897839
  H       6.094152      2.108521     -0.185013
  H       6.343646      2.714888      0.197345
  C       3.690728      3.714417     -0.153309
  C       2.539697      3.495085     -0.906801
  C       2.229944      4.672851     -1.612393
  H       1.974799      2.571434     -0.895123
  C       3.209364      5.591554     -1.287206
  H       1.390168      4.846205     -2.269997
  H       3.352711      6.609607     -1.624300
  N       4.071316      5.025178     -0.404650
  C       5.272314      5.657120      0.101036
  H       5.358581      5.494235      1.177050
  H       6.166051      5.255197     -0.386620
  H       5.219270      6.730472     -0.089165
  N       5.112252      0.408898     -0.892138
  H       4.927419      3.243045      1.818393
  C       4.528326      0.667031     -2.201100
  H       5.319096      0.966505     -2.897155
  H       4.015130     -0.215351     -2.621936
  H       3.814277      1.488574     -2.127470
  C       6.147294     -0.611511     -0.945293
  H       5.801523     -1.582731     -1.339477
  H       6.956827     -0.263231     -1.596113
  H       6.558384     -0.771818      0.054506
35
Coordinates from ORCA-job input_IRC_F E -640.971879445781
  H       1.515189     -0.323450      2.962983
  C       2.247929     -0.180798      2.174392
  C       2.866786      1.052784      2.014551
  C       2.578869     -1.226990      1.320502
  C       3.802954      1.290886      0.998756
  H       2.613536      1.864078      2.694372
  C       3.521829     -1.024243      0.319795
  H       2.105675     -2.198273      1.431728
  C       4.132573      0.220746      0.147229
  H       3.782114     -1.842921     -0.346333
  B       4.300594      2.784836      0.898305
  H       6.098860      2.109576     -0.185762
  H       6.350996      2.715315      0.195440
  C       3.690009      3.714532     -0.153059
  C       2.539201      3.495352     -0.907094
  C       2.229907      4.673050     -1.612849
  H       1.974127      2.571808     -0.895533
  C       3.209371      5.591638     -1.287285
  H       1.390459      4.846513     -2.270851
  H       3.353007      6.609621     -1.624505
  N       4.070838      5.025315     -0.404340
  C       5.271995      5.657131      0.101204
  H       5.358425      5.494260      1.177197
  H       6.165555      5.255065     -0.386623
  H       5.219023      6.730488     -0.089027
  N       5.111771      0.409280     -0.891894
  H       4.927190      3.242594      1.818109
  C       4.528093      0.667041     -2.201027
  H       5.319059      0.966193     -2.897010
  H       4.014991     -0.215482     -2.621710
  H       3.814079      1.488659     -2.127915
  C       6.146736     -0.611233     -0.945074
  H       5.800809     -1.582402     -1.339284
  H       6.956240     -0.263070     -1.595999
  H       6.557958     -0.771640      0.054651
35
Coordinates from ORCA-job input_IRC_F E -640.971962562896
  H       1.515091     -0.324443      2.963527
  C       2.247608     -0.181439      2.174785
  C       2.866027      1.052334      2.014934
  C       2.578747     -1.227412      1.320694
  C       3.801852      1.290878      0.998910
  H       2.612794      1.863454      2.694992
  C       3.521588     -1.024269      0.319932
  H       2.105862     -2.198839      1.431840
  C       4.131933      0.220900      0.147336
  H       3.782155     -1.842905     -0.346140
  B       4.298970      2.784931      0.898741
  H       6.103617      2.110630     -0.186513
  H       6.358313      2.715767      0.193520
  C       3.689298      3.714638     -0.152815
  C       2.538704      3.495614     -0.907390
  C       2.229882      4.673251     -1.613297
  H       1.973462      2.572175     -0.895949
  C       3.209372      5.591706     -1.287364
  H       1.390746      4.846820     -2.271704
  H       3.353309      6.609635     -1.624706
  N       4.070363      5.025445     -0.404039
  C       5.271677      5.657133      0.101375
  H       5.358261      5.494274      1.177346
  H       6.165066      5.254930     -0.386619
  H       5.218773      6.730497     -0.088883
  N       5.111282      0.409667     -0.891647
  H       4.926989      3.242161      1.817798
  C       4.527849      0.667059     -2.200948
  H       5.319012      0.965888     -2.896857
  H       4.014835     -0.215604     -2.621484
  H       3.813869      1.488750     -2.128346
  C       6.146172     -0.610950     -0.944845
  H       5.800104     -1.582073     -1.339082
  H       6.955647     -0.262893     -1.595871
  H       6.557518     -0.771449      0.054810
35
Coordinates from ORCA-job input_IRC_F E -640.972045002569
  H       1.514990     -0.325447      2.964075
  C       2.247294     -0.182064      2.175176
  C       2.865254      1.051865      2.015312
  C       2.578614     -1.227855      1.320889
  C       3.800751      1.290880      0.999072
  H       2.612033      1.862829      2.695613
  C       3.521352     -1.024281      0.320062
  H       2.106058     -2.199411      1.431958
  C       4.131276      0.221033      0.147446
  H       3.782193     -1.842889     -0.345954
  B       4.297401      2.785008      0.899141
  H       6.108418      2.111670     -0.187274
  H       6.365626      2.716264      0.191601
  C       3.688596      3.714737     -0.152574
  C       2.538194      3.495880     -0.907700
  C       2.229898      4.673463     -1.613719
  H       1.972800      2.572536     -0.896371
  C       3.209355      5.591726     -1.287439
  H       1.391021      4.847129     -2.272568
  H       3.353618      6.609662     -1.624909
  N       4.069882      5.025578     -0.403755
  C       5.271360      5.657126      0.101554
  H       5.358088      5.494277      1.177496
  H       6.164578      5.254793     -0.386608
  H       5.218517      6.730500     -0.088733
  N       5.110787      0.410060     -0.891394
  H       4.926807      3.241742      1.817466
  C       4.527594      0.667081     -2.200866
  H       5.318954      0.965590     -2.896695
  H       4.014667     -0.215716     -2.621257
  H       3.813652      1.488845     -2.128769
  C       6.145602     -0.610662     -0.944609
  H       5.799404     -1.581740     -1.338872
  H       6.955046     -0.262703     -1.595732
  H       6.557065     -0.771247      0.054978
35
Coordinates from ORCA-job input_IRC_F E -640.972126265695
  H       1.514900     -0.326451      2.964612
  C       2.246936     -0.182795      2.175565
  C       2.864505      1.051489      2.015689
  C       2.578516     -1.228233      1.321074
  C       3.799654      1.290829      0.999222
  H       2.611251      1.862181      2.696218
  C       3.521057     -1.024373      0.320213
  H       2.106249     -2.200018      1.432087
  C       4.130636      0.221256      0.147568
  H       3.782229     -1.842859     -0.345773
  B       4.295948      2.785058      0.899479
  H       6.113266      2.112736     -0.188016
  H       6.372878      2.716780      0.189673
  C       3.687877      3.714824     -0.152371
  C       2.537738      3.496113     -0.907962
  C       2.229743      4.673625     -1.614244
  H       1.972136      2.572893     -0.896805
  C       3.209421      5.591932     -1.287535
  H       1.391355      4.847430     -2.273387
  H       3.353916      6.609618     -1.625091
  N       4.069444      5.025655     -0.403431
  C       5.271027      5.657123      0.101719
  H       5.357903      5.494264      1.177656
  H       6.164095      5.254651     -0.386589
  H       5.218258      6.730489     -0.088573
  N       5.110279      0.410457     -0.891128
  H       4.926643      3.241336      1.817110
  C       4.527328      0.667109     -2.200773
  H       5.318884      0.965300     -2.896526
  H       4.014483     -0.215818     -2.621027
  H       3.813421      1.488949     -2.129180
  C       6.145025     -0.610359     -0.944365
  H       5.798707     -1.581403     -1.338652
  H       6.954440     -0.262497     -1.595579
  H       6.556598     -0.771032      0.055163
35
Coordinates from ORCA-job input_IRC_F E -640.972206013945
  H       1.514801     -0.327469      2.965159
  C       2.246618     -0.183434      2.175943
  C       2.863722      1.051024      2.016054
  C       2.578379     -1.228687      1.321274
  C       3.798572      1.290827      0.999393
  H       2.610447      1.861551      2.696830
  C       3.520802     -1.024394      0.320336
  H       2.106460     -2.200611      1.432219
  C       4.129964      0.221374      0.147684
  H       3.782258     -1.842835     -0.345602
  B       4.294575      2.785076      0.899760
  H       6.118131      2.113782     -0.188762
  H       6.380085      2.717358      0.187770
  C       3.687206      3.714896     -0.152168
  C       2.537236      3.496363     -0.908275
  C       2.229754      4.673828     -1.614669
  H       1.971476      2.573240     -0.897244
  C       3.209410      5.591955     -1.287612
  H       1.391631      4.847739     -2.274250
  H       3.354231      6.609640     -1.625289
  N       4.068975      5.025770     -0.403165
  C       5.270709      5.657099      0.101906
  H       5.357709      5.494240      1.177816
  H       6.163616      5.254508     -0.386562
  H       5.217993      6.730476     -0.088407
  N       5.109775      0.410871     -0.890862
  H       4.926504      3.240939      1.816730
  C       4.527046      0.667146     -2.200678
  H       5.318801      0.965019     -2.896348
  H       4.014284     -0.215911     -2.620789
  H       3.813179      1.489061     -2.129579
  C       6.144446     -0.610051     -0.944107
  H       5.798010     -1.581055     -1.338420
  H       6.953826     -0.262276     -1.595410
  H       6.556116     -0.770803      0.055361
35
Coordinates from ORCA-job input_IRC_F E -640.972285142279
  H       1.514706     -0.328500      2.965705
  C       2.246284     -0.184083      2.176331
  C       2.862933      1.050578      2.016423
  C       2.578252     -1.229141      1.321466
  C       3.797497      1.290795      0.999552
  H       2.609621      1.860908      2.697435
  C       3.520531     -1.024435      0.320459
  H       2.106673     -2.201227      1.432361
  C       4.129292      0.221522      0.147808
  H       3.782282     -1.842813     -0.345438
  B       4.293238      2.785085      0.900009
  H       6.123065      2.114857     -0.189493
  H       6.387289      2.717952      0.185849
  C       3.686540      3.714958     -0.151987
  C       2.536750      3.496606     -0.908586
  C       2.229734      4.674029     -1.615115
  H       1.970814      2.573586     -0.897694
  C       3.209409      5.592007     -1.287696
  H       1.391928      4.848046     -2.275103
  H       3.354548      6.609643     -1.625478
  N       4.068520      5.025859     -0.402900
  C       5.270379      5.657069      0.102090
  H       5.357505      5.494204      1.177981
  H       6.163137      5.254363     -0.386525
  H       5.217722      6.730454     -0.088231
  N       5.109253      0.411296     -0.890583
  H       4.926394      3.240541      1.816319
  C       4.526755      0.667193     -2.200570
  H       5.318706      0.964745     -2.896165
  H       4.014071     -0.215996     -2.620542
  H       3.812924      1.489180     -2.129972
  C       6.143857     -0.609727     -0.943840
  H       5.797308     -1.580697     -1.338177
  H       6.953208     -0.262038     -1.595230
  H       6.555619     -0.770560      0.055574
