35
Coordinates from ORCA-job input_IRC_F E -640.972285142279
  H           1.51470594127954     -0.32849988291025      2.96570519508716
  C           2.24628442898480     -0.18408292851617      2.17633139621530
  C           2.86293333773406      1.05057839757199      2.01642266173377
  C           2.57825195871635     -1.22914088120791      1.32146611679274
  C           3.79749720447197      1.29079549385311      0.99955219701742
  H           2.60962144852075      1.86090784427518      2.69743451702667
  C           3.52053090325641     -1.02443533784769      0.32045908192022
  H           2.10667287578676     -2.20122666419442      1.43236082410492
  C           4.12929167182138      0.22152189114058      0.14780795225557
  H           3.78228160276010     -1.84281313805074     -0.34543777935007
  B           4.29323805587061      2.78508469881953      0.90000945400476
  H           6.12306520313452      2.11485664239390     -0.18949314064623
  H           6.38728892947582      2.71795244822474      0.18584890167546
  C           3.68654033911877      3.71495807982316     -0.15198734625791
  C           2.53675048045275      3.49660601391160     -0.90858605769095
  C           2.22973431708863      4.67402919306333     -1.61511523144738
  H           1.97081436885396      2.57358624724976     -0.89769372657274
  C           3.20940906753192      5.59200693115147     -1.28769615522461
  H           1.39192791605107      4.84804591394247     -2.27510270426019
  H           3.35454787494243      6.60964303608756     -1.62547750529696
  N           4.06852005283692      5.02585870467095     -0.40289953978516
  C           5.27037928751457      5.65706949142258      0.10209011840385
  H           5.35750528265944      5.49420406050852      1.17798121151880
  H           6.16313744769058      5.25436260233491     -0.38652490867162
  H           5.21772233607187      6.73045423048930     -0.08823071739743
  N           5.10925318245199      0.41129610112860     -0.89058278277908
  H           4.92639402502821      3.24054137887176      1.81631862165340
  C           4.52675465016770      0.66719300414781     -2.20056966357531
  H           5.31870613824647      0.96474497265376     -2.89616485515236
  H           4.01407050471864     -0.21599578654992     -2.62054162155992
  H           3.81292361335468      1.48918027023969     -2.12997220497541
  C           6.14385684505744     -0.60972746487650     -0.94384003957160
  H           5.79730846549526     -1.58069724975781     -1.33817651439526
  H           6.95320767996301     -0.26203835344306     -1.59522968566950
  H           6.55561919623599     -0.77056018972600      0.05557395998269
