54
Coordinates from ORCA-job input_IRC_F E -914.919881960745
  H       1.314384      0.111500      2.670493
  C       2.103693      0.086073      1.925633
  C       2.790121      1.248166      1.597604
  C       2.434079     -1.106678      1.292778
  C       3.819602      1.264909      0.647244
  H       2.517861      2.180748      2.083976
  C       3.441185     -1.118071      0.336027
  H       1.910948     -2.026040      1.536511
  C       4.134154      0.051028      0.005940
  H       3.690086     -2.048941     -0.158562
  B       4.549755      2.667191      0.392583
  H       5.339264      1.748922     -0.737526
  H       5.449533      2.559314     -0.618728
  C       3.641680      3.835272     -0.144517
  C       2.365713      3.791182     -0.685348
  H       8.495521     -0.605178     -1.346968
  H       7.724164      0.973161     -1.467998
  H       5.547504      0.194470     -4.381872
  H       6.012772      1.433984     -3.220578
  H       7.950183     -0.008595     -3.716872
  H       7.064038     -1.441809     -3.230205
  N       5.174086      0.059637     -1.000444
  C       6.867573      0.019895      0.789772
  H       7.873477     -0.325051      1.046685
  H       6.875171      1.112504      0.792187
  H       6.182661     -0.314684      1.571879
  C       6.488260     -2.084793     -0.454365
  C       1.986551      5.101316     -1.061586
  H       1.776626      2.889501     -0.784096
  C       3.042656      5.922643     -0.741799
  H       1.054360      5.413542     -1.509867
  H       3.167408      6.989753     -0.860151
  N       4.033715      5.161798     -0.188960
  C       5.302430      5.676039      0.277131
  H       5.436053      5.479418      1.343959
  H       6.136334      5.218005     -0.263715
  H       5.332892      6.754037      0.110286
  C       6.482102     -0.548073     -0.584842
  C       4.699681     -0.073425     -2.420120
  C       7.553998     -0.104218     -1.596387
  C       5.855132      0.354024     -3.343082
  C       7.163477     -0.365953     -3.044736
  H       5.752342     -2.421625      0.278025
  H       6.299637     -2.597991     -1.397295
  H       7.472252     -2.405454     -0.097893
  C       4.192268     -1.470445     -2.832665
  H       3.847399     -1.425471     -3.870496
  H       4.957342     -2.245057     -2.776998
  H       3.341189     -1.779033     -2.222991
  C       3.536834      0.907488     -2.634575
  H       2.651997      0.613259     -2.065292
  H       3.793856      1.930424     -2.347212
  H       3.269689      0.915061     -3.695500
  H       5.385075      2.961373      1.227609
54
Coordinates from ORCA-job input_IRC_F E -914.921079983798
  H       1.313424      0.111615      2.670881
  C       2.102325      0.083562      1.926325
  C       2.786177      1.248265      1.602905
  C       2.432478     -1.107045      1.294081
  C       3.812951      1.258759      0.654931
  H       2.517773      2.180908      2.084617
  C       3.440350     -1.121926      0.336062
  H       1.909974     -2.026678      1.536754
  C       4.128848      0.050411      0.011973
  H       3.689903     -2.050443     -0.158832
  B       4.540289      2.657068      0.408344
  H       5.340726      1.733696     -0.742832
  H       5.482655      2.572552     -0.648847
  C       3.643794      3.831746     -0.147394
  C       2.365222      3.790646     -0.686603
  H       8.496188     -0.605045     -1.346314
  H       7.725004      0.973789     -1.467725
  H       5.547271      0.194912     -4.382224
  H       6.012440      1.434854     -3.221709
  H       7.950535     -0.008993     -3.717260
  H       7.064248     -1.442520     -3.230619
  N       5.172898      0.078448     -0.994664
  C       6.868698      0.019359      0.790030
  H       7.874106     -0.325018      1.047890
  H       6.875598      1.112218      0.792534
  H       6.182720     -0.314623      1.572449
  C       6.486368     -2.081758     -0.455364
  C       1.985518      5.102501     -1.061512
  H       1.775082      2.889486     -0.783985
  C       3.042117      5.924111     -0.741334
  H       1.053035      5.414480     -1.509945
  H       3.167287      6.990643     -0.859671
  N       4.035059      5.160386     -0.191105
  C       5.302173      5.675391      0.276716
  H       5.436089      5.479892      1.344348
  H       6.137019      5.218407     -0.263946
  H       5.332735      6.754076      0.110472
  C       6.483830     -0.544659     -0.583739
  C       4.699243     -0.069196     -2.420835
  C       7.554742     -0.103205     -1.596203
  C       5.855199      0.355194     -3.343053
  C       7.163041     -0.365761     -3.044275
  H       5.752149     -2.422261      0.278219
  H       6.299939     -2.599128     -1.397506
  H       7.471095     -2.405061     -0.098442
  C       4.193871     -1.468360     -2.830392
  H       3.847843     -1.425372     -3.869449
  H       4.957652     -2.245505     -2.776738
  H       3.340864     -1.779407     -2.223379
  C       3.536547      0.907573     -2.635871
  H       2.651393      0.613265     -2.066023
  H       3.794046      1.930265     -2.347678
  H       3.268582      0.915352     -3.696025
  H       5.381653      2.957181      1.224040
54
Coordinates from ORCA-job input_IRC_F E -914.921196447928
  H       1.312712      0.111261      2.671327
  C       2.101681      0.083368      1.926923
  C       2.785649      1.247336      1.603429
  C       2.432454     -1.107519      1.293981
  C       3.812780      1.259080      0.655518
  H       2.517237      2.181399      2.085373
  C       3.440038     -1.121919      0.336410
  H       1.909578     -2.027025      1.536929
  C       4.129042      0.049984      0.011844
  H       3.689836     -2.051004     -0.158955
  B       4.541661      2.657944      0.405466
  H       5.342714      1.735711     -0.744000
  H       5.483658      2.569329     -0.650536
  C       3.643077      3.831763     -0.147438
  C       2.365541      3.790672     -0.686682
  H       8.496178     -0.604968     -1.346197
  H       7.725272      0.974016     -1.467773
  H       5.547208      0.194983     -4.382173
  H       6.012531      1.435153     -3.221950
  H       7.950465     -0.009086     -3.717222
  H       7.064235     -1.442409     -3.230582
  N       5.172983      0.078190     -0.994742
  C       6.868897      0.019558      0.790459
  H       7.874326     -0.325072      1.048148
  H       6.875741      1.112276      0.792704
  H       6.182825     -0.314621      1.572452
  C       6.486008     -2.081476     -0.455432
  C       1.985587      5.102426     -1.061378
  H       1.774774      2.889568     -0.784008
  C       3.042354      5.923355     -0.741147
  H       1.052956      5.414608     -1.509850
  H       3.167339      6.990732     -0.859560
  N       4.034869      5.159856     -0.191378
  C       5.302342      5.675310      0.276701
  H       5.436029      5.479916      1.344261
  H       6.137130      5.218477     -0.263914
  H       5.332654      6.753947      0.110477
  C       6.483168     -0.544017     -0.583625
  C       4.699253     -0.068757     -2.420045
  C       7.554668     -0.102963     -1.596195
  C       5.855269      0.355411     -3.342920
  C       7.163098     -0.365694     -3.044296
  H       5.752129     -2.422155      0.278093
  H       6.299897     -2.599015     -1.397480
  H       7.470594     -2.404616     -0.098651
  C       4.193994     -1.468159     -2.829973
  H       3.848142     -1.425136     -3.868896
  H       4.957700     -2.245310     -2.776565
  H       3.340979     -1.779323     -2.223384
  C       3.536205      0.907928     -2.636012
  H       2.651353      0.613287     -2.066185
  H       3.793964      1.930415     -2.347783
  H       3.268347      0.915420     -3.696292
  H       5.381642      2.956614      1.224805
54
Coordinates from ORCA-job input_IRC_F E -914.921270544962
  H       1.311886      0.110817      2.671833
  C       2.101074      0.083023      1.927477
  C       2.785223      1.246812      1.604012
  C       2.432268     -1.107957      1.294042
  C       3.812696      1.259324      0.655904
  H       2.516670      2.181620      2.086118
  C       3.439811     -1.122071      0.336660
  H       1.909146     -2.027429      1.537097
  C       4.129105      0.049776      0.011924
  H       3.689697     -2.051483     -0.158992
  B       4.542820      2.658433      0.403107
  H       5.344754      1.737057     -0.745411
  H       5.485132      2.566780     -0.652493
  C       3.642731      3.831662     -0.147636
  C       2.365614      3.790634     -0.686825
  H       8.496104     -0.604857     -1.346052
  H       7.725581      0.974274     -1.467840
  H       5.547126      0.195069     -4.382053
  H       6.012648      1.435486     -3.222230
  H       7.950426     -0.009171     -3.717210
  H       7.064208     -1.442285     -3.230527
  N       5.172934      0.077942     -0.994698
  C       6.869084      0.019739      0.790805
  H       7.874541     -0.325124      1.048419
  H       6.875927      1.112395      0.792954
  H       6.182925     -0.314609      1.572525
  C       6.485625     -2.081086     -0.455530
  C       1.985587      5.102340     -1.061263
  H       1.774433      2.889657     -0.784044
  C       3.042552      5.922862     -0.741021
  H       1.052915      5.414743     -1.509702
  H       3.167394      6.990632     -0.859391
  N       4.034834      5.159446     -0.191624
  C       5.302432      5.675177      0.276648
  H       5.435961      5.479923      1.344182
  H       6.137284      5.218541     -0.263887
  H       5.332540      6.753793      0.110467
  C       6.482695     -0.543484     -0.583524
  C       4.699264     -0.068355     -2.419445
  C       7.554594     -0.102703     -1.596137
  C       5.855295      0.355660     -3.342775
  C       7.163110     -0.365583     -3.044263
  H       5.752037     -2.422038      0.277985
  H       6.299819     -2.598858     -1.397475
  H       7.470090     -2.404106     -0.098861
  C       4.194168     -1.467874     -2.829508
  H       3.848473     -1.424841     -3.868321
  H       4.957782     -2.245077     -2.776331
  H       3.341073     -1.779235     -2.223328
  C       3.535938      0.908246     -2.636149
  H       2.651249      0.613335     -2.066351
  H       3.793828      1.930641     -2.347915
  H       3.268107      0.915496     -3.696548
  H       5.381552      2.955945      1.225279
54
Coordinates from ORCA-job input_IRC_F E -914.921332042282
  H       1.310989      0.110266      2.672353
  C       2.100497      0.082717      1.928049
  C       2.784891      1.246393      1.604579
  C       2.432012     -1.108440      1.294159
  C       3.812577      1.259569      0.656233
  H       2.516043      2.181669      2.086918
  C       3.439564     -1.122236      0.336958
  H       1.908667     -2.027884      1.537266
  C       4.129053      0.049570      0.012123
  H       3.689498     -2.051935     -0.158970
  B       4.543801      2.658608      0.401155
  H       5.346914      1.737764     -0.747118
  H       5.487076      2.564807     -0.654726
  C       3.642611      3.831472     -0.148044
  C       2.365629      3.790583     -0.686989
  H       8.495974     -0.604716     -1.345871
  H       7.725934      0.974566     -1.467920
  H       5.547019      0.195171     -4.381871
  H       6.012787      1.435860     -3.222552
  H       7.950401     -0.009247     -3.717208
  H       7.064160     -1.442131     -3.230445
  N       5.172793      0.077741     -0.994557
  C       6.869266      0.019915      0.791110
  H       7.874742     -0.325171      1.048705
  H       6.876162      1.112557      0.793290
  H       6.183036     -0.314581      1.572655
  C       6.485219     -2.080630     -0.455644
  C       1.985582      5.102262     -1.061132
  H       1.774022      2.889717     -0.784103
  C       3.042710      5.922422     -0.740919
  H       1.052878      5.414897     -1.509507
  H       3.167465      6.990451     -0.859172
  N       4.034860      5.159094     -0.191909
  C       5.302504      5.675013      0.276573
  H       5.435878      5.479909      1.344103
  H       6.137479      5.218601     -0.263861
  H       5.332393      6.753610      0.110441
  C       6.482348     -0.543012     -0.583416
  C       4.699261     -0.067963     -2.418966
  C       7.554518     -0.102408     -1.596050
  C       5.855301      0.355949     -3.342613
  C       7.163095     -0.365427     -3.044190
  H       5.751875     -2.421887      0.277879
  H       6.299699     -2.598637     -1.397492
  H       7.469579     -2.403523     -0.099072
  C       4.194371     -1.467537     -2.829003
  H       3.848842     -1.424478     -3.867718
  H       4.957905     -2.244789     -2.776021
  H       3.341163     -1.779125     -2.223207
  C       3.535712      0.908550     -2.636281
  H       2.651094      0.613418     -2.066533
  H       3.793628      1.930939     -2.348084
  H       3.267865      0.915581     -3.696786
  H       5.381420      2.955162      1.225480
54
Coordinates from ORCA-job input_IRC_F E -914.921409538650
  H       1.309763      0.109385      2.673005
  C       2.099747      0.082490      1.928897
  C       2.784549      1.245824      1.605275
  C       2.431630     -1.109238      1.294317
  C       3.812302      1.259907      0.656669
  H       2.515120      2.181537      2.088083
  C       3.439161     -1.122363      0.337494
  H       1.907965     -2.028523      1.537491
  C       4.128831      0.049154      0.012489
  H       3.689151     -2.052523     -0.158863
  B       4.544863      2.658488      0.399011
  H       5.350006      1.737855     -0.749832
  H       5.490248      2.562852     -0.658035
  C       3.642691      3.831087     -0.148884
  C       2.365642      3.790515     -0.687239
  H       8.495734     -0.604486     -1.345576
  H       7.726459      0.975001     -1.468037
  H       5.546835      0.195331     -4.381550
  H       6.013000      1.436414     -3.223034
  H       7.950376     -0.009334     -3.717207
  H       7.064058     -1.441871     -3.230286
  N       5.172517      0.077584     -0.994255
  C       6.869501      0.020156      0.791492
  H       7.874983     -0.325224      1.049102
  H       6.876549      1.112815      0.793862
  H       6.183208     -0.314513      1.572897
  C       6.484654     -2.079965     -0.455805
  C       1.985633      5.102156     -1.060899
  H       1.773383      2.889763     -0.784216
  C       3.042844      5.921811     -0.740801
  H       1.052799      5.415139     -1.509182
  H       3.167590      6.990168     -0.858810
  N       4.034959      5.158654     -0.192383
  C       5.302602      5.674756      0.276446
  H       5.435743      5.479853      1.343991
  H       6.137794      5.218674     -0.263826
  H       5.332152      6.753333      0.110381
  C       6.482000     -0.542423     -0.583249
  C       4.699230     -0.067428     -2.418433
  C       7.554417     -0.101957     -1.595908
  C       5.855293      0.356394     -3.342372
  C       7.163049     -0.365155     -3.044050
  H       5.751562     -2.421617      0.277730
  H       6.299472     -2.598235     -1.397550
  H       7.468902     -2.402651     -0.099346
  C       4.194665     -1.467036     -2.828290
  H       3.849384     -1.423901     -3.866892
  H       4.958135     -2.244314     -2.775487
  H       3.341292     -1.778926     -2.222949
  C       3.535441      0.908957     -2.636450
  H       2.650833      0.613587     -2.066806
  H       3.793261      1.931419     -2.348369
  H       3.267548      0.915705     -3.697067
  H       5.381237      2.953967      1.225385
