54
Coordinates from ORCA-job input_IRC_Full E -914.922630341524
  H       1.313679      0.112603      2.673941
  C       2.102333      0.083556      1.928429
  C       2.783966      1.247152      1.593837
  C       2.435366     -1.104570      1.294201
  C       3.814947      1.267983      0.641876
  H       2.504786      2.176912      2.083653
  C       3.444032     -1.108329      0.337510
  H       1.913829     -2.026224      1.535215
  C       4.144473      0.056889     -0.000828
  H       3.695769     -2.037642     -0.159609
  B       4.461814      2.705182      0.493920
  H       5.722054      2.005119     -1.080123
  H       5.842501      2.754230     -1.027428
  C       3.633544      3.839212     -0.120613
  C       2.358414      3.794169     -0.682186
  H       8.494587     -0.618120     -1.348855
  H       7.729823      0.963462     -1.466426
  H       5.546139      0.178641     -4.384566
  H       6.009688      1.426027     -3.232338
  H       7.951147     -0.011437     -3.718112
  H       7.066549     -1.447111     -3.233246
  N       5.173193      0.028024     -1.006577
  C       6.863907      0.019956      0.783459
  H       7.872136     -0.316713      1.044309
  H       6.861074      1.112815      0.772875
  H       6.182537     -0.314022      1.570282
  C       6.497705     -2.093499     -0.451340
  C       1.987471      5.094968     -1.068123
  H       1.770897      2.891126     -0.779572
  C       3.050734      5.916966     -0.744394
  H       1.060468      5.409301     -1.525513
  H       3.176340      6.982820     -0.877798
  N       4.030628      5.168842     -0.178525
  C       5.305235      5.681292      0.278842
  H       5.438570      5.490730      1.346216
  H       6.130922      5.212425     -0.263864
  H       5.338549      6.757879      0.104918
  C       6.478865     -0.556337     -0.588136
  C       4.701262     -0.082316     -2.418297
  C       7.554770     -0.111955     -1.597068
  C       5.854103      0.346047     -3.346310
  C       7.163983     -0.370654     -3.046120
  H       5.761068     -2.431652      0.281099
  H       6.306137     -2.607912     -1.394323
  H       7.481714     -2.416672     -0.095592
  C       4.188630     -1.475339     -2.842837
  H       3.842992     -1.432891     -3.881074
  H       4.953765     -2.251036     -2.784371
  H       3.337542     -1.785439     -2.232285
  C       3.542161      0.903733     -2.632173
  H       2.653749      0.611403     -2.065473
  H       3.811401      1.920908     -2.337356
  H       3.273572      0.916960     -3.693091
  H       5.447082      2.969216      1.132459
54
Coordinates from ORCA-job input_IRC_Full E -914.922567034677
  H       1.314298      0.112770      2.673538
  C       2.102850      0.084087      1.928007
  C       2.784961      1.247480      1.593195
  C       2.435428     -1.104450      1.293978
  C       3.815990      1.268221      0.640764
  H       2.505206      2.176824      2.083289
  C       3.443975     -1.108305      0.337369
  H       1.914018     -2.025973      1.535216
  C       4.144717      0.056597     -0.001416
  H       3.695777     -2.037546     -0.159653
  B       4.462167      2.705927      0.493023
  H       5.720836      2.004134     -1.078831
  H       5.839339      2.751249     -1.024733
  C       3.634345      3.838957     -0.121930
  C       2.358726      3.794052     -0.682686
  H       8.494266     -0.617925     -1.349012
  H       7.729491      0.963742     -1.466512
  H       5.546235      0.178799     -4.384245
  H       6.009880      1.426243     -3.231762
  H       7.951059     -0.011165     -3.717973
  H       7.066424     -1.446697     -3.233020
  N       5.172936      0.026500     -1.006770
  C       6.863838      0.020148      0.783662
  H       7.872084     -0.316879      1.044047
  H       6.861108      1.112958      0.772960
  H       6.182474     -0.314099      1.570297
  C       6.497681     -2.093379     -0.451276
  C       1.987393      5.094790     -1.067523
  H       1.771469      2.890978     -0.779787
  C       3.050607      5.916916     -0.744005
  H       1.060663      5.409039     -1.525238
  H       3.176258      6.982551     -0.877689
  N       4.030915      5.168761     -0.179184
  C       5.305204      5.681119      0.278717
  H       5.438384      5.490398      1.346042
  H       6.130817      5.212188     -0.263874
  H       5.338523      6.757706      0.104927
  C       6.478670     -0.556246     -0.588068
  C       4.701238     -0.082296     -2.418137
  C       7.554553     -0.111618     -1.596973
  C       5.854087      0.346373     -3.346071
  C       7.163940     -0.370330     -3.046005
  H       5.760922     -2.431316      0.281064
  H       6.305912     -2.607325     -1.394345
  H       7.481671     -2.416547     -0.095555
  C       4.188549     -1.475249     -2.842785
  H       3.842953     -1.432816     -3.881000
  H       4.953745     -2.250767     -2.784305
  H       3.337660     -1.785227     -2.231958
  C       3.542006      0.903993     -2.631987
  H       2.653756      0.611408     -2.065228
  H       3.811201      1.921141     -2.337250
  H       3.273776      0.916860     -3.693033
  H       5.447624      2.969925      1.132223
54
Coordinates from ORCA-job input_IRC_Full E -914.922488332836
  H       1.314693      0.112802      2.673277
  C       2.103180      0.084531      1.927723
  C       2.785745      1.247721      1.592739
  C       2.435472     -1.104419      1.293791
  C       3.817014      1.268402      0.639696
  H       2.505401      2.176774      2.083107
  C       3.443869     -1.108329      0.337320
  H       1.914177     -2.025801      1.535204
  C       4.145035      0.056318     -0.002035
  H       3.695782     -2.037417     -0.159669
  B       4.462041      2.706842      0.492253
  H       5.720206      2.004880     -1.077802
  H       5.836825      2.747656     -1.022897
  C       3.634981      3.838649     -0.122950
  C       2.358982      3.794028     -0.683020
  H       8.494006     -0.617798     -1.349158
  H       7.729236      0.963891     -1.466603
  H       5.546320      0.178875     -4.383992
  H       6.010040      1.426367     -3.231333
  H       7.950966     -0.010989     -3.717856
  H       7.066335     -1.446361     -3.232846
  N       5.172682      0.025137     -1.006897
  C       6.863831      0.020359      0.783965
  H       7.872061     -0.317021      1.043846
  H       6.861130      1.113033      0.772985
  H       6.182436     -0.314172      1.570257
  C       6.497615     -2.093358     -0.451250
  C       1.987317      5.094575     -1.067029
  H       1.771918      2.890945     -0.779917
  C       3.050563      5.916805     -0.743660
  H       1.060893      5.408827     -1.525040
  H       3.176207      6.982322     -0.877630
  N       4.031098      5.168661     -0.179667
  C       5.305157      5.681001      0.278636
  H       5.438264      5.490163      1.345897
  H       6.130682      5.212016     -0.263865
  H       5.338496      6.757555      0.104943
  C       6.478344     -0.556044     -0.588003
  C       4.701246     -0.082222     -2.417818
  C       7.554412     -0.111320     -1.596907
  C       5.854100      0.346655     -3.345924
  C       7.163959     -0.370089     -3.045952
  H       5.760827     -2.431053      0.281018
  H       6.305746     -2.606868     -1.394337
  H       7.481621     -2.416427     -0.095534
  C       4.188485     -1.475250     -2.842702
  H       3.842957     -1.432749     -3.880920
  H       4.953712     -2.250549     -2.784262
  H       3.337764     -1.785063     -2.231713
  C       3.541768      0.904309     -2.631865
  H       2.653798      0.611393     -2.065044
  H       3.811063      1.921280     -2.337176
  H       3.273941      0.916772     -3.693022
  H       5.448205      2.970428      1.132139
54
Coordinates from ORCA-job input_IRC_Full E -914.922330820485
  H       1.314962      0.112766      2.673097
  C       2.103355      0.084895      1.927549
  C       2.786339      1.247962      1.592462
  C       2.435501     -1.104478      1.293622
  C       3.818134      1.268499      0.638588
  H       2.505467      2.176756      2.083034
  C       3.443723     -1.108435      0.337319
  H       1.914326     -2.025654      1.535183
  C       4.145448      0.056076     -0.002718
  H       3.695782     -2.037243     -0.159658
  B       4.461487      2.707953      0.491403
  H       5.720028      2.007470     -1.076846
  H       5.834555      2.742846     -1.021624
  C       3.635610      3.838170     -0.123711
  C       2.359177      3.794060     -0.683262
  H       8.493793     -0.617708     -1.349300
  H       7.729020      0.963931     -1.466692
  H       5.546404      0.178910     -4.383782
  H       6.010168      1.426414     -3.230992
  H       7.950847     -0.010877     -3.717730
  H       7.066266     -1.446069     -3.232703
  N       5.172432      0.023917     -1.006964
  C       6.863879      0.020609      0.784394
  H       7.872041     -0.317141      1.043679
  H       6.861143      1.113030      0.772965
  H       6.182433     -0.314236      1.570155
  C       6.497502     -2.093467     -0.451263
  C       1.987221      5.094308     -1.066614
  H       1.772312      2.891003     -0.779996
  C       3.050572      5.916707     -0.743355
  H       1.061142      5.408654     -1.524885
  H       3.176170      6.982127     -0.877599
  N       4.031223      5.168542     -0.180038
  C       5.305088      5.680917      0.278577
  H       5.438181      5.489988      1.345767
  H       6.130538      5.211885     -0.263845
  H       5.338476      6.757415      0.104964
  C       6.477862     -0.555719     -0.587952
  C       4.701293     -0.082099     -2.417322
  C       7.554358     -0.111012     -1.596865
  C       5.854140      0.346940     -3.345870
  C       7.164045     -0.369913     -3.045964
  H       5.760782     -2.430821      0.280955
  H       6.305627     -2.606477     -1.394285
  H       7.481572     -2.416316     -0.095521
  C       4.188424     -1.475369     -2.842595
  H       3.842979     -1.432691     -3.880848
  H       4.953656     -2.250345     -2.784238
  H       3.337875     -1.784915     -2.231535
  C       3.541426      0.904714     -2.631785
  H       2.653889      0.611367     -2.064912
  H       3.810964      1.921322     -2.337130
  H       3.274081      0.916693     -3.693030
  H       5.448887      2.970815      1.132215
54
Coordinates from ORCA-job input_IRC_Full E -914.920914647180
  H       1.314673      0.112133      2.671795
  C       2.103524      0.085484      1.926591
  C       2.788230      1.248064      1.595033
  C       2.434790     -1.105578      1.293200
  C       3.818868      1.266704      0.642916
  H       2.511664      2.178752      2.083505
  C       3.442454     -1.113253      0.336673
  H       1.912637     -2.025847      1.535847
  C       4.139801      0.053552      0.001611
  H       3.692934     -2.043092     -0.159110
  B       4.505621      2.687572      0.441993
  H       5.529646      1.878196     -0.907186
  H       5.642044      2.651080     -0.820176
  C       3.638645      3.836721     -0.134114
  C       2.362445      3.792621     -0.684305
  H       8.494657     -0.611443     -1.348134
  H       7.726592      0.968546     -1.467345
  H       5.546954      0.186690     -4.382827
  H       6.011470      1.430199     -3.225785
  H       7.950515     -0.009736     -3.717301
  H       7.065152     -1.443939     -3.231454
  N       5.173259      0.041777     -1.003704
  C       6.865726      0.020252      0.787083
  H       7.872759     -0.321096      1.045182
  H       6.868157      1.112767      0.782576
  H       6.182547     -0.314460      1.571017
  C       6.492881     -2.089130     -0.452814
  C       1.986886      5.097812     -1.064100
  H       1.774469      2.890252     -0.782046
  C       3.046614      5.919675     -0.742577
  H       1.057751      5.411098     -1.517376
  H       3.171789      6.985940     -0.868875
  N       4.032469      5.165170     -0.184499
  C       5.303759      5.678478      0.277854
  H       5.437117      5.484703      1.344863
  H       6.133436      5.214945     -0.263780
  H       5.335684      6.755726      0.107625
  C       6.479982     -0.551896     -0.586397
  C       4.700487     -0.077762     -2.418721
  C       7.554178     -0.107615     -1.596626
  C       5.854636      0.350482     -3.344476
  C       7.163761     -0.367933     -3.045350
  H       5.756562     -2.426223      0.279490
  H       6.302632     -2.602234     -1.395790
  H       7.476912     -2.410885     -0.096707
  C       4.190346     -1.472907     -2.837630
  H       3.845189     -1.429081     -3.875672
  H       4.955499     -2.247701     -2.780618
  H       3.339532     -1.781974     -2.227263
  C       3.539130      0.906101     -2.633180
  H       2.652943      0.612313     -2.065102
  H       3.802410      1.925873     -2.342171
  H       3.271885      0.915877     -3.694265
  H       5.416981      2.966094      1.179912
54
Coordinates from ORCA-job input_IRC_Full E -914.919881960745
  H       1.314384      0.111500      2.670493
  C       2.103693      0.086073      1.925633
  C       2.790121      1.248166      1.597604
  C       2.434079     -1.106678      1.292778
  C       3.819602      1.264909      0.647244
  H       2.517861      2.180748      2.083976
  C       3.441185     -1.118071      0.336027
  H       1.910948     -2.026040      1.536511
  C       4.134154      0.051028      0.005940
  H       3.690086     -2.048941     -0.158562
  B       4.549755      2.667191      0.392583
  H       5.339264      1.748922     -0.737526
  H       5.449533      2.559314     -0.618728
  C       3.641680      3.835272     -0.144517
  C       2.365713      3.791182     -0.685348
  H       8.495521     -0.605178     -1.346968
  H       7.724164      0.973161     -1.467998
  H       5.547504      0.194470     -4.381872
  H       6.012772      1.433984     -3.220578
  H       7.950183     -0.008595     -3.716872
  H       7.064038     -1.441809     -3.230205
  N       5.174086      0.059637     -1.000444
  C       6.867573      0.019895      0.789772
  H       7.873477     -0.325051      1.046685
  H       6.875171      1.112504      0.792187
  H       6.182661     -0.314684      1.571879
  C       6.488260     -2.084793     -0.454365
  C       1.986551      5.101316     -1.061586
  H       1.776626      2.889501     -0.784096
  C       3.042656      5.922643     -0.741799
  H       1.054360      5.413542     -1.509867
  H       3.167408      6.989753     -0.860151
  N       4.033715      5.161798     -0.188960
  C       5.302430      5.676039      0.277131
  H       5.436053      5.479418      1.343959
  H       6.136334      5.218005     -0.263715
  H       5.332892      6.754037      0.110286
  C       6.482102     -0.548073     -0.584842
  C       4.699681     -0.073425     -2.420120
  C       7.553998     -0.104218     -1.596387
  C       5.855132      0.354024     -3.343082
  C       7.163477     -0.365953     -3.044736
  H       5.752342     -2.421625      0.278025
  H       6.299637     -2.597991     -1.397295
  H       7.472252     -2.405454     -0.097893
  C       4.192268     -1.470445     -2.832665
  H       3.847399     -1.425471     -3.870496
  H       4.957342     -2.245057     -2.776998
  H       3.341189     -1.779033     -2.222991
  C       3.536834      0.907488     -2.634575
  H       2.651997      0.613259     -2.065292
  H       3.793856      1.930424     -2.347212
  H       3.269689      0.915061     -3.695500
  H       5.385075      2.961373      1.227609
54
Coordinates from ORCA-job input_IRC_Full E -914.921079983798
  H       1.313424      0.111615      2.670881
  C       2.102325      0.083562      1.926325
  C       2.786177      1.248265      1.602905
  C       2.432478     -1.107045      1.294081
  C       3.812951      1.258759      0.654931
  H       2.517773      2.180908      2.084617
  C       3.440350     -1.121926      0.336062
  H       1.909974     -2.026678      1.536754
  C       4.128848      0.050411      0.011973
  H       3.689903     -2.050443     -0.158832
  B       4.540289      2.657068      0.408344
  H       5.340726      1.733696     -0.742832
  H       5.482655      2.572552     -0.648847
  C       3.643794      3.831746     -0.147394
  C       2.365222      3.790646     -0.686603
  H       8.496188     -0.605045     -1.346314
  H       7.725004      0.973789     -1.467725
  H       5.547271      0.194912     -4.382224
  H       6.012440      1.434854     -3.221709
  H       7.950535     -0.008993     -3.717260
  H       7.064248     -1.442520     -3.230619
  N       5.172898      0.078448     -0.994664
  C       6.868698      0.019359      0.790030
  H       7.874106     -0.325018      1.047890
  H       6.875598      1.112218      0.792534
  H       6.182720     -0.314623      1.572449
  C       6.486368     -2.081758     -0.455364
  C       1.985518      5.102501     -1.061512
  H       1.775082      2.889486     -0.783985
  C       3.042117      5.924111     -0.741334
  H       1.053035      5.414480     -1.509945
  H       3.167287      6.990643     -0.859671
  N       4.035059      5.160386     -0.191105
  C       5.302173      5.675391      0.276716
  H       5.436089      5.479892      1.344348
  H       6.137019      5.218407     -0.263946
  H       5.332735      6.754076      0.110472
  C       6.483830     -0.544659     -0.583739
  C       4.699243     -0.069196     -2.420835
  C       7.554742     -0.103205     -1.596203
  C       5.855199      0.355194     -3.343053
  C       7.163041     -0.365761     -3.044275
  H       5.752149     -2.422261      0.278219
  H       6.299939     -2.599128     -1.397506
  H       7.471095     -2.405061     -0.098442
  C       4.193871     -1.468360     -2.830392
  H       3.847843     -1.425372     -3.869449
  H       4.957652     -2.245505     -2.776738
  H       3.340864     -1.779407     -2.223379
  C       3.536547      0.907573     -2.635871
  H       2.651393      0.613265     -2.066023
  H       3.794046      1.930265     -2.347678
  H       3.268582      0.915352     -3.696025
  H       5.381653      2.957181      1.224040
54
Coordinates from ORCA-job input_IRC_Full E -914.921196447928
  H       1.312712      0.111261      2.671327
  C       2.101681      0.083368      1.926923
  C       2.785649      1.247336      1.603429
  C       2.432454     -1.107519      1.293981
  C       3.812780      1.259080      0.655518
  H       2.517237      2.181399      2.085373
  C       3.440038     -1.121919      0.336410
  H       1.909578     -2.027025      1.536929
  C       4.129042      0.049984      0.011844
  H       3.689836     -2.051004     -0.158955
  B       4.541661      2.657944      0.405466
  H       5.342714      1.735711     -0.744000
  H       5.483658      2.569329     -0.650536
  C       3.643077      3.831763     -0.147438
  C       2.365541      3.790672     -0.686682
  H       8.496178     -0.604968     -1.346197
  H       7.725272      0.974016     -1.467773
  H       5.547208      0.194983     -4.382173
  H       6.012531      1.435153     -3.221950
  H       7.950465     -0.009086     -3.717222
  H       7.064235     -1.442409     -3.230582
  N       5.172983      0.078190     -0.994742
  C       6.868897      0.019558      0.790459
  H       7.874326     -0.325072      1.048148
  H       6.875741      1.112276      0.792704
  H       6.182825     -0.314621      1.572452
  C       6.486008     -2.081476     -0.455432
  C       1.985587      5.102426     -1.061378
  H       1.774774      2.889568     -0.784008
  C       3.042354      5.923355     -0.741147
  H       1.052956      5.414608     -1.509850
  H       3.167339      6.990732     -0.859560
  N       4.034869      5.159856     -0.191378
  C       5.302342      5.675310      0.276701
  H       5.436029      5.479916      1.344261
  H       6.137130      5.218477     -0.263914
  H       5.332654      6.753947      0.110477
  C       6.483168     -0.544017     -0.583625
  C       4.699253     -0.068757     -2.420045
  C       7.554668     -0.102963     -1.596195
  C       5.855269      0.355411     -3.342920
  C       7.163098     -0.365694     -3.044296
  H       5.752129     -2.422155      0.278093
  H       6.299897     -2.599015     -1.397480
  H       7.470594     -2.404616     -0.098651
  C       4.193994     -1.468159     -2.829973
  H       3.848142     -1.425136     -3.868896
  H       4.957700     -2.245310     -2.776565
  H       3.340979     -1.779323     -2.223384
  C       3.536205      0.907928     -2.636012
  H       2.651353      0.613287     -2.066185
  H       3.793964      1.930415     -2.347783
  H       3.268347      0.915420     -3.696292
  H       5.381642      2.956614      1.224805
54
Coordinates from ORCA-job input_IRC_Full E -914.921270544962
  H       1.311886      0.110817      2.671833
  C       2.101074      0.083023      1.927477
  C       2.785223      1.246812      1.604012
  C       2.432268     -1.107957      1.294042
  C       3.812696      1.259324      0.655904
  H       2.516670      2.181620      2.086118
  C       3.439811     -1.122071      0.336660
  H       1.909146     -2.027429      1.537097
  C       4.129105      0.049776      0.011924
  H       3.689697     -2.051483     -0.158992
  B       4.542820      2.658433      0.403107
  H       5.344754      1.737057     -0.745411
  H       5.485132      2.566780     -0.652493
  C       3.642731      3.831662     -0.147636
  C       2.365614      3.790634     -0.686825
  H       8.496104     -0.604857     -1.346052
  H       7.725581      0.974274     -1.467840
  H       5.547126      0.195069     -4.382053
  H       6.012648      1.435486     -3.222230
  H       7.950426     -0.009171     -3.717210
  H       7.064208     -1.442285     -3.230527
  N       5.172934      0.077942     -0.994698
  C       6.869084      0.019739      0.790805
  H       7.874541     -0.325124      1.048419
  H       6.875927      1.112395      0.792954
  H       6.182925     -0.314609      1.572525
  C       6.485625     -2.081086     -0.455530
  C       1.985587      5.102340     -1.061263
  H       1.774433      2.889657     -0.784044
  C       3.042552      5.922862     -0.741021
  H       1.052915      5.414743     -1.509702
  H       3.167394      6.990632     -0.859391
  N       4.034834      5.159446     -0.191624
  C       5.302432      5.675177      0.276648
  H       5.435961      5.479923      1.344182
  H       6.137284      5.218541     -0.263887
  H       5.332540      6.753793      0.110467
  C       6.482695     -0.543484     -0.583524
  C       4.699264     -0.068355     -2.419445
  C       7.554594     -0.102703     -1.596137
  C       5.855295      0.355660     -3.342775
  C       7.163110     -0.365583     -3.044263
  H       5.752037     -2.422038      0.277985
  H       6.299819     -2.598858     -1.397475
  H       7.470090     -2.404106     -0.098861
  C       4.194168     -1.467874     -2.829508
  H       3.848473     -1.424841     -3.868321
  H       4.957782     -2.245077     -2.776331
  H       3.341073     -1.779235     -2.223328
  C       3.535938      0.908246     -2.636149
  H       2.651249      0.613335     -2.066351
  H       3.793828      1.930641     -2.347915
  H       3.268107      0.915496     -3.696548
  H       5.381552      2.955945      1.225279
54
Coordinates from ORCA-job input_IRC_Full E -914.921332042282
  H       1.310989      0.110266      2.672353
  C       2.100497      0.082717      1.928049
  C       2.784891      1.246393      1.604579
  C       2.432012     -1.108440      1.294159
  C       3.812577      1.259569      0.656233
  H       2.516043      2.181669      2.086918
  C       3.439564     -1.122236      0.336958
  H       1.908667     -2.027884      1.537266
  C       4.129053      0.049570      0.012123
  H       3.689498     -2.051935     -0.158970
  B       4.543801      2.658608      0.401155
  H       5.346914      1.737764     -0.747118
  H       5.487076      2.564807     -0.654726
  C       3.642611      3.831472     -0.148044
  C       2.365629      3.790583     -0.686989
  H       8.495974     -0.604716     -1.345871
  H       7.725934      0.974566     -1.467920
  H       5.547019      0.195171     -4.381871
  H       6.012787      1.435860     -3.222552
  H       7.950401     -0.009247     -3.717208
  H       7.064160     -1.442131     -3.230445
  N       5.172793      0.077741     -0.994557
  C       6.869266      0.019915      0.791110
  H       7.874742     -0.325171      1.048705
  H       6.876162      1.112557      0.793290
  H       6.183036     -0.314581      1.572655
  C       6.485219     -2.080630     -0.455644
  C       1.985582      5.102262     -1.061132
  H       1.774022      2.889717     -0.784103
  C       3.042710      5.922422     -0.740919
  H       1.052878      5.414897     -1.509507
  H       3.167465      6.990451     -0.859172
  N       4.034860      5.159094     -0.191909
  C       5.302504      5.675013      0.276573
  H       5.435878      5.479909      1.344103
  H       6.137479      5.218601     -0.263861
  H       5.332393      6.753610      0.110441
  C       6.482348     -0.543012     -0.583416
  C       4.699261     -0.067963     -2.418966
  C       7.554518     -0.102408     -1.596050
  C       5.855301      0.355949     -3.342613
  C       7.163095     -0.365427     -3.044190
  H       5.751875     -2.421887      0.277879
  H       6.299699     -2.598637     -1.397492
  H       7.469579     -2.403523     -0.099072
  C       4.194371     -1.467537     -2.829003
  H       3.848842     -1.424478     -3.867718
  H       4.957905     -2.244789     -2.776021
  H       3.341163     -1.779125     -2.223207
  C       3.535712      0.908550     -2.636281
  H       2.651094      0.613418     -2.066533
  H       3.793628      1.930939     -2.348084
  H       3.267865      0.915581     -3.696786
  H       5.381420      2.955162      1.225480
54
Coordinates from ORCA-job input_IRC_Full E -914.921409538650
  H       1.309763      0.109385      2.673005
  C       2.099747      0.082490      1.928897
  C       2.784549      1.245824      1.605275
  C       2.431630     -1.109238      1.294317
  C       3.812302      1.259907      0.656669
  H       2.515120      2.181537      2.088083
  C       3.439161     -1.122363      0.337494
  H       1.907965     -2.028523      1.537491
  C       4.128831      0.049154      0.012489
  H       3.689151     -2.052523     -0.158863
  B       4.544863      2.658488      0.399011
  H       5.350006      1.737855     -0.749832
  H       5.490248      2.562852     -0.658035
  C       3.642691      3.831087     -0.148884
  C       2.365642      3.790515     -0.687239
  H       8.495734     -0.604486     -1.345576
  H       7.726459      0.975001     -1.468037
  H       5.546835      0.195331     -4.381550
  H       6.013000      1.436414     -3.223034
  H       7.950376     -0.009334     -3.717207
  H       7.064058     -1.441871     -3.230286
  N       5.172517      0.077584     -0.994255
  C       6.869501      0.020156      0.791492
  H       7.874983     -0.325224      1.049102
  H       6.876549      1.112815      0.793862
  H       6.183208     -0.314513      1.572897
  C       6.484654     -2.079965     -0.455805
  C       1.985633      5.102156     -1.060899
  H       1.773383      2.889763     -0.784216
  C       3.042844      5.921811     -0.740801
  H       1.052799      5.415139     -1.509182
  H       3.167590      6.990168     -0.858810
  N       4.034959      5.158654     -0.192383
  C       5.302602      5.674756      0.276446
  H       5.435743      5.479853      1.343991
  H       6.137794      5.218674     -0.263826
  H       5.332152      6.753333      0.110381
  C       6.482000     -0.542423     -0.583249
  C       4.699230     -0.067428     -2.418433
  C       7.554417     -0.101957     -1.595908
  C       5.855293      0.356394     -3.342372
  C       7.163049     -0.365155     -3.044050
  H       5.751562     -2.421617      0.277730
  H       6.299472     -2.598235     -1.397550
  H       7.468902     -2.402651     -0.099346
  C       4.194665     -1.467036     -2.828290
  H       3.849384     -1.423901     -3.866892
  H       4.958135     -2.244314     -2.775487
  H       3.341292     -1.778926     -2.222949
  C       3.535441      0.908957     -2.636450
  H       2.650833      0.613587     -2.066806
  H       3.793261      1.931419     -2.348369
  H       3.267548      0.915705     -3.697067
  H       5.381237      2.953967      1.225385
