54
Coordinates from ORCA-job input_IRC_B E -914.922330820485
  H       1.314962      0.112766      2.673097
  C       2.103355      0.084895      1.927549
  C       2.786339      1.247962      1.592462
  C       2.435501     -1.104478      1.293622
  C       3.818134      1.268499      0.638588
  H       2.505467      2.176756      2.083034
  C       3.443723     -1.108435      0.337319
  H       1.914326     -2.025654      1.535183
  C       4.145448      0.056076     -0.002718
  H       3.695782     -2.037243     -0.159658
  B       4.461487      2.707953      0.491403
  H       5.720028      2.007470     -1.076846
  H       5.834555      2.742846     -1.021624
  C       3.635610      3.838170     -0.123711
  C       2.359177      3.794060     -0.683262
  H       8.493793     -0.617708     -1.349300
  H       7.729020      0.963931     -1.466692
  H       5.546404      0.178910     -4.383782
  H       6.010168      1.426414     -3.230992
  H       7.950847     -0.010877     -3.717730
  H       7.066266     -1.446069     -3.232703
  N       5.172432      0.023917     -1.006964
  C       6.863879      0.020609      0.784394
  H       7.872041     -0.317141      1.043679
  H       6.861143      1.113030      0.772965
  H       6.182433     -0.314236      1.570155
  C       6.497502     -2.093467     -0.451263
  C       1.987221      5.094308     -1.066614
  H       1.772312      2.891003     -0.779996
  C       3.050572      5.916707     -0.743355
  H       1.061142      5.408654     -1.524885
  H       3.176170      6.982127     -0.877599
  N       4.031223      5.168542     -0.180038
  C       5.305088      5.680917      0.278577
  H       5.438181      5.489988      1.345767
  H       6.130538      5.211885     -0.263845
  H       5.338476      6.757415      0.104964
  C       6.477862     -0.555719     -0.587952
  C       4.701293     -0.082099     -2.417322
  C       7.554358     -0.111012     -1.596865
  C       5.854140      0.346940     -3.345870
  C       7.164045     -0.369913     -3.045964
  H       5.760782     -2.430821      0.280955
  H       6.305627     -2.606477     -1.394285
  H       7.481572     -2.416316     -0.095521
  C       4.188424     -1.475369     -2.842595
  H       3.842979     -1.432691     -3.880848
  H       4.953656     -2.250345     -2.784238
  H       3.337875     -1.784915     -2.231535
  C       3.541426      0.904714     -2.631785
  H       2.653889      0.611367     -2.064912
  H       3.810964      1.921322     -2.337130
  H       3.274081      0.916693     -3.693030
  H       5.448887      2.970815      1.132215
54
Coordinates from ORCA-job input_IRC_B E -914.922488332836
  H       1.314693      0.112802      2.673277
  C       2.103180      0.084531      1.927723
  C       2.785745      1.247721      1.592739
  C       2.435472     -1.104419      1.293791
  C       3.817014      1.268402      0.639696
  H       2.505401      2.176774      2.083107
  C       3.443869     -1.108329      0.337320
  H       1.914177     -2.025801      1.535204
  C       4.145035      0.056318     -0.002035
  H       3.695782     -2.037417     -0.159669
  B       4.462041      2.706842      0.492253
  H       5.720206      2.004880     -1.077802
  H       5.836825      2.747656     -1.022897
  C       3.634981      3.838649     -0.122950
  C       2.358982      3.794028     -0.683020
  H       8.494006     -0.617798     -1.349158
  H       7.729236      0.963891     -1.466603
  H       5.546320      0.178875     -4.383992
  H       6.010040      1.426367     -3.231333
  H       7.950966     -0.010989     -3.717856
  H       7.066335     -1.446361     -3.232846
  N       5.172682      0.025137     -1.006897
  C       6.863831      0.020359      0.783965
  H       7.872061     -0.317021      1.043846
  H       6.861130      1.113033      0.772985
  H       6.182436     -0.314172      1.570257
  C       6.497615     -2.093358     -0.451250
  C       1.987317      5.094575     -1.067029
  H       1.771918      2.890945     -0.779917
  C       3.050563      5.916805     -0.743660
  H       1.060893      5.408827     -1.525040
  H       3.176207      6.982322     -0.877630
  N       4.031098      5.168661     -0.179667
  C       5.305157      5.681001      0.278636
  H       5.438264      5.490163      1.345897
  H       6.130682      5.212016     -0.263865
  H       5.338496      6.757555      0.104943
  C       6.478344     -0.556044     -0.588003
  C       4.701246     -0.082222     -2.417818
  C       7.554412     -0.111320     -1.596907
  C       5.854100      0.346655     -3.345924
  C       7.163959     -0.370089     -3.045952
  H       5.760827     -2.431053      0.281018
  H       6.305746     -2.606868     -1.394337
  H       7.481621     -2.416427     -0.095534
  C       4.188485     -1.475250     -2.842702
  H       3.842957     -1.432749     -3.880920
  H       4.953712     -2.250549     -2.784262
  H       3.337764     -1.785063     -2.231713
  C       3.541768      0.904309     -2.631865
  H       2.653798      0.611393     -2.065044
  H       3.811063      1.921280     -2.337176
  H       3.273941      0.916772     -3.693022
  H       5.448205      2.970428      1.132139
54
Coordinates from ORCA-job input_IRC_B E -914.922567034677
  H       1.314298      0.112770      2.673538
  C       2.102850      0.084087      1.928007
  C       2.784961      1.247480      1.593195
  C       2.435428     -1.104450      1.293978
  C       3.815990      1.268221      0.640764
  H       2.505206      2.176824      2.083289
  C       3.443975     -1.108305      0.337369
  H       1.914018     -2.025973      1.535216
  C       4.144717      0.056597     -0.001416
  H       3.695777     -2.037546     -0.159653
  B       4.462167      2.705927      0.493023
  H       5.720836      2.004134     -1.078831
  H       5.839339      2.751249     -1.024733
  C       3.634345      3.838957     -0.121930
  C       2.358726      3.794052     -0.682686
  H       8.494266     -0.617925     -1.349012
  H       7.729491      0.963742     -1.466512
  H       5.546235      0.178799     -4.384245
  H       6.009880      1.426243     -3.231762
  H       7.951059     -0.011165     -3.717973
  H       7.066424     -1.446697     -3.233020
  N       5.172936      0.026500     -1.006770
  C       6.863838      0.020148      0.783662
  H       7.872084     -0.316879      1.044047
  H       6.861108      1.112958      0.772960
  H       6.182474     -0.314099      1.570297
  C       6.497681     -2.093379     -0.451276
  C       1.987393      5.094790     -1.067523
  H       1.771469      2.890978     -0.779787
  C       3.050607      5.916916     -0.744005
  H       1.060663      5.409039     -1.525238
  H       3.176258      6.982551     -0.877689
  N       4.030915      5.168761     -0.179184
  C       5.305204      5.681119      0.278717
  H       5.438384      5.490398      1.346042
  H       6.130817      5.212188     -0.263874
  H       5.338523      6.757706      0.104927
  C       6.478670     -0.556246     -0.588068
  C       4.701238     -0.082296     -2.418137
  C       7.554553     -0.111618     -1.596973
  C       5.854087      0.346373     -3.346071
  C       7.163940     -0.370330     -3.046005
  H       5.760922     -2.431316      0.281064
  H       6.305912     -2.607325     -1.394345
  H       7.481671     -2.416547     -0.095555
  C       4.188549     -1.475249     -2.842785
  H       3.842953     -1.432816     -3.881000
  H       4.953745     -2.250767     -2.784305
  H       3.337660     -1.785227     -2.231958
  C       3.542006      0.903993     -2.631987
  H       2.653756      0.611408     -2.065228
  H       3.811201      1.921141     -2.337250
  H       3.273776      0.916860     -3.693033
  H       5.447624      2.969925      1.132223
54
Coordinates from ORCA-job input_IRC_B E -914.922630341524
  H       1.313679      0.112603      2.673941
  C       2.102333      0.083556      1.928429
  C       2.783966      1.247152      1.593837
  C       2.435366     -1.104570      1.294201
  C       3.814947      1.267983      0.641876
  H       2.504786      2.176912      2.083653
  C       3.444032     -1.108329      0.337510
  H       1.913829     -2.026224      1.535215
  C       4.144473      0.056889     -0.000828
  H       3.695769     -2.037642     -0.159609
  B       4.461814      2.705182      0.493920
  H       5.722054      2.005119     -1.080123
  H       5.842501      2.754230     -1.027428
  C       3.633544      3.839212     -0.120613
  C       2.358414      3.794169     -0.682186
  H       8.494587     -0.618120     -1.348855
  H       7.729823      0.963462     -1.466426
  H       5.546139      0.178641     -4.384566
  H       6.009688      1.426027     -3.232338
  H       7.951147     -0.011437     -3.718112
  H       7.066549     -1.447111     -3.233246
  N       5.173193      0.028024     -1.006577
  C       6.863907      0.019956      0.783459
  H       7.872136     -0.316713      1.044309
  H       6.861074      1.112815      0.772875
  H       6.182537     -0.314022      1.570282
  C       6.497705     -2.093499     -0.451340
  C       1.987471      5.094968     -1.068123
  H       1.770897      2.891126     -0.779572
  C       3.050734      5.916966     -0.744394
  H       1.060468      5.409301     -1.525513
  H       3.176340      6.982820     -0.877798
  N       4.030628      5.168842     -0.178525
  C       5.305235      5.681292      0.278842
  H       5.438570      5.490730      1.346216
  H       6.130922      5.212425     -0.263864
  H       5.338549      6.757879      0.104918
  C       6.478865     -0.556337     -0.588136
  C       4.701262     -0.082316     -2.418297
  C       7.554770     -0.111955     -1.597068
  C       5.854103      0.346047     -3.346310
  C       7.163983     -0.370654     -3.046120
  H       5.761068     -2.431652      0.281099
  H       6.306137     -2.607912     -1.394323
  H       7.481714     -2.416672     -0.095592
  C       4.188630     -1.475339     -2.842837
  H       3.842992     -1.432891     -3.881074
  H       4.953765     -2.251036     -2.784371
  H       3.337542     -1.785439     -2.232285
  C       3.542161      0.903733     -2.632173
  H       2.653749      0.611403     -2.065473
  H       3.811401      1.920908     -2.337356
  H       3.273572      0.916960     -3.693091
  H       5.447082      2.969216      1.132459
