70
 energy: -90.280892917099 gnorm: 0.000596157575 xtb: 6.7.1 (edcfbbe)
C           -1.98659216750128       -1.98396429821070        1.10959849798607
C           -0.67143344461179       -1.57007530746198        1.00900023245362
C           -0.31902852829326       -0.26684372613213        0.65581469848691
C           -1.36384643188109        0.63368932918471        0.38460231210199
C           -2.68730763645957        0.21038059662300        0.49074988383207
C           -3.00478723030300       -1.08488016765744        0.85326337462156
H           -2.21605768247949       -3.00385507952087        1.38534787166634
H            0.11475289231562       -2.28581420767666        1.19904314394898
H           -3.48770987295497        0.90481230710834        0.28536119221117
H           -4.03953377309294       -1.38929092919264        0.92991642079276
B            1.23071096421052        0.13680475699940        0.58690309145060
H            1.75291906524514       -0.86023817116605       -0.20511609125439
C            1.95295765857116        0.18560303041927        2.03142282647917
C            1.62368970945115       -0.41193666823047        3.22222714223758
C            2.35609515079520        0.05378531723513        4.33208805088207
H            0.86905689984006       -1.17514539677289        3.29066731947669
C            3.24126887858795        1.03086126970039        3.99505828974592
H            2.22714288654515       -0.31598256541114        5.33471911121276
H            3.91830618033087        1.56320680566985        4.63388950397742
H            1.53826013746628        1.07632624633085       -0.05519947997968
B            2.58707222033915       -1.34282344452322        0.61207813498888
O            3.91897626250707       -1.11577063587596        0.43105963091462
O            2.33374473643294       -2.56009549564620        1.17528896873038
C            4.66709170362007       -2.13840994610237        1.10091329084651
C            3.57030792710037       -3.20434116391812        1.50102091990553
C            5.73186866998565       -2.65153362798234        0.12976356493190
H            6.41186682231967       -1.83522799569909       -0.09976414486056
H            6.29635321149310       -3.46401996848854        0.57741880045333
H            5.28687132755619       -2.98728408296091       -0.80136261397247
C            5.37521931282234       -1.49689529673327        2.29823367488525
H            5.99338757942172       -0.68043749994960        1.93260206717089
H            4.66375875706453       -1.08448211586441        3.00634524312240
H            6.00836805917857       -2.22058624809894        2.80261844216987
C            3.54482422428483       -3.56739869083143        2.98655526851311
H            2.74578244223033       -4.28553701801377        3.15421998790041
H            4.48741687097495       -4.01433937539687        3.28772687957075
H            3.34234358705148       -2.69433465812221        3.59895993288212
C            3.62642928570330       -4.49558027529645        0.67772488453030
H            4.53969094669600       -5.04660879556904        0.87879544519590
H            2.77460223417011       -5.11417232808692        0.94998796043804
H            3.55484161696717       -4.27981719656768       -0.38440744230792
N           -1.05828020055372        1.96924150759605       -0.00693111370138
C           -1.20196288921423        2.28658233620814       -1.42462816577047
C           -1.18950336472491        3.00394120937476        1.01385397832706
S            3.18832224947935        1.38722500735752        2.31649674848964
C           -0.29451520232709        4.19275460791965        0.62510123246718
C           -0.66419753060964        2.45162839688985        2.34647861253532
C           -2.62751594836730        3.49694719135819        1.28751543257478
C           -0.53852933495336        4.66188780046602       -0.80115223352425
H            0.74631622578082        3.87507883318781        0.71233531662422
H           -0.46075930235287        5.01088424379509        1.32824632733802
C           -0.30374719269034        3.49369266910498       -1.74673149362109
H            0.14732300130215        5.47731135977409       -1.04419876186525
H           -1.55295527157165        5.04683281699972       -0.91115495186709
H            0.73708249516105        3.17857079518165       -1.65191596700876
H           -0.47333149747029        3.80128508757418       -2.78031935436037
C           -2.64152571986522        2.56448977704710       -1.91138911852740
C           -0.69411077426800        1.09794261572077       -2.25698187014290
H           -0.68672517183081        1.37140004308404       -3.30984758391465
H           -1.33771432326853        0.23126294843632       -2.12999138401420
H            0.31307283336272        0.82544499723227       -1.96205252680758
H           -2.62956109865248        2.71818974790373       -2.98871486827713
H           -3.07234573282457        3.44799047761532       -1.45491139839226
H           -3.28458957625350        1.71460007040794       -1.70290135684215
H            0.33794277266866        2.05979890054781        2.22148065838619
H           -1.30148914740625        1.65339165987139        2.71808696789812
H           -0.63900669516525        3.24787361892192        3.08704430072716
H           -3.05427284724147        4.02911567778007        0.44492727891220
H           -2.61467266360689        4.17631419994757        2.13753721641766
H           -3.27422016908901        2.66121521811642        1.53792381383190
