74
Coordinates from ORCA-job input_IRC_B E -1325.540946701010
  C           2.20350974858558      0.83365603378262      0.87580854631382
  C           1.42686871820507     -0.31255740221935      0.59989644402285
  C           1.93386307628387     -1.56043040199132      0.99264554909505
  C           3.15464369590635     -1.69451557589976      1.64421319561922
  C           3.91044081592827     -0.56126823886813      1.91647531663108
  C           3.43383262966303      0.68658763501844      1.53139699437265
  H           1.35881513241101     -2.45736589919890      0.76966938973743
  H           3.51374239216995     -2.67915373375166      1.93086938779204
  H           4.87008863623910     -0.64366124425322      2.41987052619697
  H           4.02946618929303      1.56906655570315      1.73869109242008
  N           1.73981049988782      2.13087354033179      0.47056129885008
  C           2.38626603395285      2.71646824884136     -0.73134967780408
  C           1.18193777950107      3.00394144961798      1.53227314106280
  C           1.44151002678525      3.78436557625825     -1.31285632994713
  C           2.55639147710797      1.62414670693840     -1.79883807080362
  C           3.78602881226667      3.33405924343382     -0.50236393521440
  C           0.29554985041478      4.07452254777928      0.86770690661184
  C           0.27444061492439      2.16859518486592      2.44730348926863
  C           2.22983886813623      3.68941372029223      2.44106544255468
  H           1.93973359794871      4.27842488035773     -2.15568993768411
  H           0.55792983008337      3.27107888366459     -1.71448060593231
  C           0.98475572227596      4.80413015657315     -0.27784870080894
  H           2.92495250286173      2.07815527171543     -2.72433121649229
  H           1.60400780702219      1.13343153773504     -2.01081220891788
  H           3.27595315032233      0.86154398259369     -1.48956870792995
  H           3.77385223943070      4.18916068234880      0.17558963963458
  H           4.19279344334229      3.68341535742977     -1.45769154870345
  H           4.48353652707071      2.59259415014071     -0.10462465844959
  H          -0.04263486125812      4.78073904907800      1.63549393986544
  H          -0.59834931225682      3.57310606148666      0.47296879912014
  H           0.83577351777145      1.41237384331328      3.00236551263531
  H          -0.21128070032304      2.82816432198650      3.17401863787126
  H          -0.50288685050830      1.65786500438420      1.87244646648284
  H           2.86731369470248      2.95003836785896      2.93277889980713
  H           1.72255839943878      4.25633121987098      3.22936766483856
  H           2.87290954582086      4.38680791882856      1.90127939934240
  H           0.29619771546762      5.52467170343573     -0.73387819714569
  H           1.83698649988246      5.38843426481566      0.09177464527619
  B           0.01491408114053     -0.22785558131850     -0.15057842238560
  H          -0.24036940350535      0.72281661889754     -0.83414758886681
  C          -1.81554585636701     -3.42042466822966     -3.40840097205304
  H          -2.13249862236102     -2.67440699835583     -4.14187177644961
  H          -0.72329163761558     -3.46073488494711     -3.41513336194389
  H          -2.20240794676500     -4.39401447012892     -3.72683467030884
  C          -3.87802999805071     -2.98750569865549     -2.06408745861344
  H          -4.30186258635349     -3.98793153367403     -2.19747633514768
  H          -4.20709093641692     -2.36499080234593     -2.90097109539095
  H          -4.27843007730954     -2.55594805743555     -1.14461033478167
  C          -2.65804527266691     -3.95020696299919      0.36644719486435
  H          -3.52388636598418     -4.59394028823959      0.18883100610956
  H          -2.08558102923384     -4.35846929335315      1.20360049967792
  H          -3.01132101731120     -2.96056041517919      0.66330809000424
  C          -1.31887202008035     -5.29205601437926     -1.25311884070984
  H          -2.18376578167102     -5.87364412303954     -1.59059978959378
  C          -2.35351286933497     -3.02735592968498     -2.03134274733054
  C          -1.74552376846136     -3.88343375705694     -0.85844563048033
  O          -1.88954288000496     -1.69712938129046     -1.73652475056995
  O          -0.57627324964090     -3.12616149671213     -0.48847250054349
  B          -0.88301951362422     -1.79226765175566     -0.76895417136562
  H          -0.89001685845048     -5.80065769863573     -0.38574140441045
  H          -0.57064340653425     -5.28679212606829     -2.04714387640145
  H           0.19385364700947     -1.13459490823096     -1.11679165724127
  C          -2.95923638873824      0.82734296183513     -0.46349747047618
  N          -2.54029476908901     -0.05323913729600      0.61158378103316
  C          -1.29237583655001     -0.68554015440096      0.71869676732534
  C          -1.30100931644304     -1.30083345945772      1.98197513893824
  C          -2.53701135972637     -1.07988542552718      2.59468736595460
  C          -3.27609843865037     -0.30505791427392      1.71044509014847
  H          -2.36050516610874      1.74219621531284     -0.45685028334600
  H          -4.00842194005863      1.08434138396176     -0.30926577347875
  H          -2.84090988480742      0.31857487652102     -1.41959128782551
  H          -0.46726273509900     -1.85199008699092      2.39532319810082
  H          -2.88012307596560     -1.44682115553523      3.55157009183922
  H          -4.28425757848300      0.07819494094787      1.79875151304052
