74
Coordinates from ORCA-job input_IRC_F E -1325.540002725196
  C           2.22997614457320      0.85779570917776      0.89753580195100
  C           1.42093564026138     -0.26827447854637      0.65111945494961
  C           1.90587428625969     -1.53130413513105      1.02060016521354
  C           3.14508869306704     -1.68848694486683      1.63256278369129
  C           3.92525137678863     -0.56883150915084      1.89728833171013
  C           3.46866160912125      0.69147872040710      1.52777745846158
  H           1.30312029196450     -2.41469697753900      0.81772512274760
  H           3.49567909236653     -2.67928915859324      1.90864671511927
  H           4.88926273876586     -0.67130998824818      2.38801702970210
  H           4.07952749085941      1.56363650443288      1.73303792056075
  N           1.75958569069688      2.15109407426291      0.49018539914863
  C           2.39463980722459      2.72495291170340     -0.72426666722615
  C           1.20235616193684      3.03110866033594      1.54705950147293
  C           1.44461074006961      3.78661828294053     -1.30843251299400
  C           2.55795915829676      1.62392589546128     -1.78534373938289
  C           3.79541273550968      3.34322447957184     -0.50943405964822
  C           0.30877109847865      4.09019975512349      0.87526150116936
  C           0.30086974286991      2.21028219279109      2.47965016260610
  C           2.25812437035938      3.71910183784313      2.44124253685441
  H           1.93851773588997      4.27547096188933     -2.15683076494353
  H           0.56026790878022      3.26909525393209     -1.70295460893997
  C           0.99068948458863      4.81273000794862     -0.27855184029308
  H           2.91794254946099      2.07321221099640     -2.71668938142076
  H           1.60564681931232      1.12903544867744     -1.98774399779133
  H           3.28233989614580      0.86512164352492     -1.47806076697811
  H           3.78725871774519      4.20306642327326      0.16232911802031
  H           4.19708794647379      3.68452054423955     -1.46972666433194
  H           4.49397313958988      2.60377953153008     -0.10978288856961
  H          -0.03215807728248      4.80020463199154      1.63794272173536
  H          -0.58326070250517      3.57964373717146      0.48767626623890
  H           0.85463269142907      1.43463655533456      3.01532734848138
  H          -0.14932032919330      2.87657935672208      3.22219747833107
  H          -0.50773499790432      1.72381139932215      1.92993476394810
  H           2.89435169940106      2.97709609956507      2.93125054308584
  H           1.75844881392757      4.29105305064968      3.23030985658186
  H           2.90027997384279      4.40940783665181      1.89211883624441
  H           0.29847178574679      5.52820155277920     -0.73678097988448
  H           1.84357944735514      5.40094879336014      0.08304842951544
  B          -0.03016264185520     -0.05240226415470      0.04710585932969
  H          -0.20997330792618      0.75382350052288     -0.81958147014347
  C          -1.89104792244105     -3.52450338743914     -3.45890648829351
  H          -2.19702566644068     -2.77005947562086     -4.18804463862701
  H          -0.79878677676824     -3.58509710128242     -3.47997631064260
  H          -2.30173429627881     -4.49074560614568     -3.76128069410057
  C          -3.90353188147974     -2.98900595336644     -2.05924255862240
  H          -4.36352350016024     -3.97636836515574     -2.16540731321886
  H          -4.23433266586651     -2.36715406828837     -2.89532486415613
  H          -4.25771976667313     -2.53323836285564     -1.13263682941162
  C          -2.61463539491156     -3.92698782118761      0.36312717609565
  H          -3.51743777297399     -4.53293042312477      0.23963992621460
  H          -2.03061707355083     -4.34320415668365      1.18789616870961
  H          -2.90390677102782     -2.91286909594843      0.64713518078275
  C          -1.39032801200734     -5.37163856695563     -1.27563771248577
  H          -2.27258488955658     -5.94407270428058     -1.57630874186345
  C          -2.38733476612846     -3.09873937791372     -2.07838621054222
  C          -1.76778660756622     -3.94554158315077     -0.90617595666125
  O          -1.82819713778368     -1.78306479292448     -1.85580855725091
  O          -0.53695684091319     -3.23391867392817     -0.62798581983129
  B          -0.69666673349603     -1.97758244002533     -1.11939350236135
  H          -0.94325812754322     -5.86106381846150     -0.40664358306440
  H          -0.65994161020390     -5.39334909900008     -2.08619209648310
  H           0.21744747989635     -1.19319331895881     -1.14075786901368
  C          -2.97206436946598      0.83347004189163     -0.42920224270047
  N          -2.55363634494421      0.00072411191602      0.68272447350729
  C          -1.26537784603025     -0.47098683714008      0.90089667764051
  C          -1.30815052559741     -1.16703248226765      2.10677754227366
  C          -2.61765492807641     -1.10861824315032      2.61685506094082
  C          -3.35943172038206     -0.37547070927661      1.70828236565533
  H          -2.40883724846570      1.77018271409653     -0.43855852314103
  H          -4.03318267273187      1.06011578173694     -0.31268169187611
  H          -2.81582413786916      0.31009011109597     -1.37424329881308
  H          -0.45298343642012     -1.65082528429587      2.55924765640668
  H          -2.98864766642775     -1.53799486731110      3.53651587568964
  H          -4.40041339995683     -0.08219378005826      1.72831056899868
