54
Coordinates from ORCA-job input_IRC_B E -914.921433313854
  H           1.11504824996699     -4.67037819809818      1.57644356740256
  C           0.65390692618346     -3.71661654604234      1.33726597266808
  C           1.44812707753318     -2.61019904985563      1.06809635113869
  C          -0.73044684537131     -3.59510437048814      1.29446894061685
  C           0.89817456090704     -1.36126461490728      0.75562349710932
  H           2.53098044155270     -2.70811494595550      1.08585618168853
  C          -1.30484030103471     -2.36973686590286      0.97723054114973
  H          -1.36701790466390     -4.44922810054879      1.50504562655606
  C          -0.50499480770247     -1.25464665482930      0.70658904511172
  H          -2.38411558541170     -2.28266711227249      0.94034646025199
  B           1.92287781395453     -0.15730236597351      0.49819413481863
  H          -0.91491721440433      2.72647174373141      0.93610391261402
  H          -2.41999855750407      2.79291439273749      1.84612609532977
  H          -2.40904779080461      1.67912793400688     -2.31442776745964
  H          -0.90730687929662      2.06950613655565     -1.48333964335867
  H          -2.74099193768814      3.43240801456431     -0.55617759295529
  H          -3.67693148059608      2.00088666856558     -0.17468086068238
  N          -1.06932007520175      0.03569339493474      0.35721339476555
  C          -0.70472740932934      0.80221180790640      2.67319820883479
  H          -0.57151053038473     -0.19680930731948      3.09475428781582
  H           0.27692492586765      1.17761488970842      2.37429413575389
  H          -1.09007521524855      1.45579442656388      3.46164673963984
  C          -3.02336368423172      0.22858076620373      2.03542886186185
  C          -1.69283842365617      0.79629126242792      1.49782716027517
  C          -1.69576895770252      0.11993931636299     -1.01084490413561
  C          -1.90006496355843      2.25363499445155      1.04590058986145
  C          -1.89527654389831      1.60935857497510     -1.34891129624570
  C          -2.65138520471202      2.37801573810476     -0.27309726013207
  H          -2.91143690234705     -0.80160059892792      2.37932497937328
  H          -3.84018630421999      0.26603628746924      1.31350272283038
  H          -3.33255874426786      0.82377414374257      2.90120684474854
  C          -3.03025550205869     -0.63432981674869     -1.19222067212231
  H          -3.36649324849973     -0.50457870925294     -2.22630227006401
  H          -2.90941178623934     -1.70704434591574     -1.02880837616149
  H          -3.83244259775661     -0.27610161254138     -0.54593926680409
  C          -0.71061963702941     -0.46920421277803     -2.03074173514039
  H           0.27805454081966     -0.00673689709888     -1.96893951462589
  H          -1.09778400609488     -0.30166883036123     -3.04040803204399
  H          -0.58664624182172     -1.54613754430123     -1.89296012648615
  H           2.35873718421456      0.35374893753953      1.50768150301465
  H           0.50377698775090      0.66052549109857      0.17210498413947
  H           1.24883500364183      1.02886729152913      0.07389237987408
  C           4.45925622555947      1.57023971999798     -0.07858669830327
  N           4.04706100653636      0.46013643375486     -0.91006641999299
  C           2.93321371240124     -0.33751236704776     -0.70073315643647
  C           2.92420400735780     -1.26033678402653     -1.73611738286581
  C           4.03617214323551     -1.01562417945148     -2.57722063439738
  C           4.70697007798504      0.05652891882370     -2.03637055165248
  H           3.71403459926865      2.37188828467635     -0.08788013018035
  H           5.39980434360444      1.97050872478827     -0.46261402645420
  H           4.61193185123354      1.25010295270818      0.95509847138473
  H           2.18339711801642     -2.04073252624493     -1.85384340465260
  H           4.31830852328214     -1.55658867591252     -3.47007097047356
  H           5.60528512794429      0.56330194375075     -2.36344274811812
